13939318
  -OEChem-03181921093D

 37 38  0     0  0  0  0  0  0999 V2000
   -2.3081    2.1245   -0.5300 O   0  0  0  0  0  0  0  0  0  0  0  0
   -2.1547   -2.6682   -0.4777 O   0  0  0  0  0  0  0  0  0  0  0  0
    1.6253   -0.1763   -2.3900 O   0  0  0  0  0  0  0  0  0  0  0  0
   -5.7465   -0.3611    1.6395 O   0  0  0  0  0  0  0  0  0  0  0  0
    6.4604    0.1499    1.6899 O   0  0  0  0  0  0  0  0  0  0  0  0
   -0.9273   -0.2387   -1.2995 C   0  0  0  0  0  0  0  0  0  0  0  0
   -2.2135   -0.2714   -0.5150 C   0  0  0  0  0  0  0  0  0  0  0  0
    0.2952   -0.1896   -0.3800 C   0  0  0  0  0  0  0  0  0  0  0  0
   -2.8374    0.9211   -0.1714 C   0  0  0  0  0  0  0  0  0  0  0  0
    1.6326   -0.1460   -1.1422 C   0  0  0  0  0  0  0  0  0  0  0  0
   -2.7600   -1.4935   -0.1449 C   0  0  0  0  0  0  0  0  0  0  0  0
    2.8852   -0.0697   -0.4072 C   0  0  0  0  0  0  0  0  0  0  0  0
   -4.0281    0.8908    0.5547 C   0  0  0  0  0  0  0  0  0  0  0  0
   -3.9507   -1.5237    0.5811 C   0  0  0  0  0  0  0  0  0  0  0  0
   -4.5847   -0.3316    0.9310 C   0  0  0  0  0  0  0  0  0  0  0  0
    2.8750   -0.0361    0.9871 C   0  0  0  0  0  0  0  0  0  0  0  0
    4.0971   -0.0300   -1.0970 C   0  0  0  0  0  0  0  0  0  0  0  0
    4.0764    0.0374    1.6919 C   0  0  0  0  0  0  0  0  0  0  0  0
    5.2987    0.0434   -0.3922 C   0  0  0  0  0  0  0  0  0  0  0  0
    5.2884    0.0770    1.0022 C   0  0  0  0  0  0  0  0  0  0  0  0
   -3.0234    3.2917   -0.1300 C   0  0  0  0  0  0  0  0  0  0  0  0
   -0.9198    0.6384   -1.9608 H   0  0  0  0  0  0  0  0  0  0  0  0
   -0.8641   -1.0819   -1.9982 H   0  0  0  0  0  0  0  0  0  0  0  0
    0.3019   -1.0748    0.2666 H   0  0  0  0  0  0  0  0  0  0  0  0
    0.2328    0.7076    0.2478 H   0  0  0  0  0  0  0  0  0  0  0  0
   -4.5662    1.7834    0.8552 H   0  0  0  0  0  0  0  0  0  0  0  0
   -4.3850   -2.4762    0.8747 H   0  0  0  0  0  0  0  0  0  0  0  0
    1.9575   -0.0659    1.5660 H   0  0  0  0  0  0  0  0  0  0  0  0
    4.1320   -0.0548   -2.1830 H   0  0  0  0  0  0  0  0  0  0  0  0
    4.0555    0.0631    2.7782 H   0  0  0  0  0  0  0  0  0  0  0  0
    6.2395    0.0743   -0.9349 H   0  0  0  0  0  0  0  0  0  0  0  0
   -1.2171   -2.5295   -0.6810 H   0  0  0  0  0  0  0  0  0  0  0  0
   -3.0669    3.3855    0.9605 H   0  0  0  0  0  0  0  0  0  0  0  0
   -4.0141    3.3383   -0.5949 H   0  0  0  0  0  0  0  0  0  0  0  0
   -2.4603    4.1554   -0.4990 H   0  0  0  0  0  0  0  0  0  0  0  0
   -6.0480    0.5502    1.7954 H   0  0  0  0  0  0  0  0  0  0  0  0
    6.2663    0.1644    2.6428 H   0  0  0  0  0  0  0  0  0  0  0  0
  1  9  1  0  0  0  0
  1 21  1  0  0  0  0
  2 11  1  0  0  0  0
  2 32  1  0  0  0  0
  3 10  2  0  0  0  0
  4 15  1  0  0  0  0
  4 36  1  0  0  0  0
  5 20  1  0  0  0  0
  5 37  1  0  0  0  0
  6  7  1  0  0  0  0
  6  8  1  0  0  0  0
  6 22  1  0  0  0  0
  6 23  1  0  0  0  0
  7  9  1  0  0  0  0
  7 11  2  0  0  0  0
  8 10  1  0  0  0  0
  8 24  1  0  0  0  0
  8 25  1  0  0  0  0
  9 13  2  0  0  0  0
 10 12  1  0  0  0  0
 11 14  1  0  0  0  0
 12 16  2  0  0  0  0
 12 17  1  0  0  0  0
 13 15  1  0  0  0  0
 13 26  1  0  0  0  0
 14 15  2  0  0  0  0
 14 27  1  0  0  0  0
 16 18  1  0  0  0  0
 16 28  1  0  0  0  0
 17 19  2  0  0  0  0
 17 29  1  0  0  0  0
 18 20  2  0  0  0  0
 18 30  1  0  0  0  0
 19 20  1  0  0  0  0
 19 31  1  0  0  0  0
 21 33  1  0  0  0  0
 21 34  1  0  0  0  0
 21 35  1  0  0  0  0
M  END
> <PUBCHEM_COMPOUND_CID>
13939318

> <PUBCHEM_CONFORMER_RMSD>
0.8

> <PUBCHEM_CONFORMER_DIVERSEORDER>
2
47
40
25
7
43
28
9
27
22
31
23
12
24
17
48
26
29
13
1
45
10
21
6
20
15
44
11
46
16
5
36
8
14
33
34
37
4
3
32
18
41
35
38
39
19
30
42

> <PUBCHEM_MMFF94_PARTIAL_CHARGES>
30
1 -0.36
10 0.42
11 0.08
12 0.09
13 -0.15
14 -0.15
15 0.08
16 -0.15
17 -0.15
18 -0.15
19 -0.15
2 -0.53
20 0.08
21 0.28
26 0.15
27 0.15
28 0.15
29 0.15
3 -0.57
30 0.15
31 0.15
32 0.45
36 0.45
37 0.45
4 -0.53
5 -0.53
6 0.14
7 -0.14
8 0.06
9 0.08

> <PUBCHEM_EFFECTIVE_ROTOR_COUNT>
5

> <PUBCHEM_PHARMACOPHORE_FEATURES>
7
1 1 acceptor
1 2 donor
1 3 acceptor
1 4 donor
1 5 donor
6 12 16 17 18 19 20 rings
6 7 9 11 13 14 15 rings

> <PUBCHEM_HEAVY_ATOM_COUNT>
21

> <PUBCHEM_ATOM_DEF_STEREO_COUNT>
0

> <PUBCHEM_ATOM_UDEF_STEREO_COUNT>
0

> <PUBCHEM_BOND_DEF_STEREO_COUNT>
0

> <PUBCHEM_BOND_UDEF_STEREO_COUNT>
0

> <PUBCHEM_ISOTOPIC_ATOM_COUNT>
0

> <PUBCHEM_COMPONENT_COUNT>
1

> <PUBCHEM_CACTVS_TAUTO_COUNT>
63

> <PUBCHEM_CONFORMER_ID>
00D4B27600000002

> <PUBCHEM_MMFF94_ENERGY>
67.1117

> <PUBCHEM_FEATURE_SELFOVERLAP>
35.522

> <PUBCHEM_SHAPE_FINGERPRINT>
10319926 262 18339923697895057646
10912923 1 17603309245873359740
11370993 144 17346326972454520478
11595378 159 18187362108333032840
11796584 16 8430330051992659584
12107183 9 17538553319307867232
12236239 1 17385727997315889436
12403259 415 17845941736354180508
12596602 18 17748547056558855312
12633257 1 18271528692657599833
12892183 10 18335415717126628222
13533116 47 16733276753737832637
13544653 18 14995999922205120558
13583140 156 18271226258419735148
13675066 3 18060419119030286014
13862211 1 15140949640112769752
14178342 30 18115028489452428263
14341114 176 18342460335634114952
15081414 286 16917067772575451208
15188451 53 17821725070067106587
15880784 105 16081090385172127208
17780758 139 18040708173567455560
17844677 252 18411139143462186024
1813 80 16515973571055918454
19377110 9 17749389308599480412
19784866 240 16008751311999612875
200 152 16008748030607461295
20028762 73 16660360385911850210
20645477 56 17917712391979419047
20645477 70 14490191639703252702
21033648 29 17632003170468638632
21267235 1 16153706510354240170
23366157 5 17465960650161021869
23402539 116 18341611542933415351
23557571 272 18271822180531523012
23559900 14 18127148401878078062
2748736 6 14619356811627390618
351380 3 16949998140994090210
474 4 14836411323891808926
5104073 3 18267869371825985130
57724786 102 16845572058690478280
5924683 9 17916859257083172479
602551 16 18339359772926310654
633830 44 14764351548369372700
9849439 229 17617658757221954513

> <PUBCHEM_SHAPE_MULTIPOLES>
402.82
13.6
1.91
1.6
10.22
1.11
-0.04
0.11
7.12
-3.78
-0.19
1.38
-0.12
0.41

> <PUBCHEM_SHAPE_SELFOVERLAP>
862.702

> <PUBCHEM_SHAPE_VOLUME>
222.9

> <PUBCHEM_COORDINATE_TYPE>
2
5
10

$$$$
