14157896
  -OEChem-03181921103D

 36 37  0     0  0  0  0  0  0999 V2000
   -2.5223    1.3490   -1.5421 O   0  0  0  0  0  0  0  0  0  0  0  0
    1.4709    1.9757    1.2938 O   0  0  0  0  0  0  0  0  0  0  0  0
   -5.8225   -1.8664   -0.3241 O   0  0  0  0  0  0  0  0  0  0  0  0
    6.3730   -1.4110   -0.8578 O   0  0  0  0  0  0  0  0  0  0  0  0
   -1.0605    0.9152    0.8734 C   0  0  0  0  0  0  0  0  0  0  0  0
    0.1742    0.1722    0.3578 C   0  0  0  0  0  0  0  0  0  0  0  0
   -2.3327    0.1792    0.5411 C   0  0  0  0  0  0  0  0  0  0  0  0
    1.4987    0.8867    0.6845 C   0  0  0  0  0  0  0  0  0  0  0  0
   -2.9969    0.4347   -0.6505 C   0  0  0  0  0  0  0  0  0  0  0  0
   -2.8215   -0.7525    1.4466 C   0  0  0  0  0  0  0  0  0  0  0  0
    2.7634    0.2906    0.2838 C   0  0  0  0  0  0  0  0  0  0  0  0
   -4.1736   -0.2552   -0.9426 C   0  0  0  0  0  0  0  0  0  0  0  0
   -3.9980   -1.4422    1.1546 C   0  0  0  0  0  0  0  0  0  0  0  0
   -4.6741   -1.1937   -0.0400 C   0  0  0  0  0  0  0  0  0  0  0  0
    2.7763   -0.9272   -0.3959 C   0  0  0  0  0  0  0  0  0  0  0  0
    3.9636    0.9371    0.5796 C   0  0  0  0  0  0  0  0  0  0  0  0
    3.9893   -1.4989   -0.7798 C   0  0  0  0  0  0  0  0  0  0  0  0
    5.1768    0.3654    0.1955 C   0  0  0  0  0  0  0  0  0  0  0  0
    5.1896   -0.8525   -0.4843 C   0  0  0  0  0  0  0  0  0  0  0  0
   -2.9739    2.6937   -1.3936 C   0  0  0  0  0  0  0  0  0  0  0  0
   -0.9875    1.0400    1.9625 H   0  0  0  0  0  0  0  0  0  0  0  0
   -1.0774    1.9370    0.4797 H   0  0  0  0  0  0  0  0  0  0  0  0
    0.1039    0.0685   -0.7316 H   0  0  0  0  0  0  0  0  0  0  0  0
    0.2043   -0.8263    0.8103 H   0  0  0  0  0  0  0  0  0  0  0  0
   -2.3022   -0.9558    2.3789 H   0  0  0  0  0  0  0  0  0  0  0  0
   -4.6963   -0.0577   -1.8754 H   0  0  0  0  0  0  0  0  0  0  0  0
   -4.3828   -2.1724    1.8612 H   0  0  0  0  0  0  0  0  0  0  0  0
    1.8683   -1.4654   -0.6486 H   0  0  0  0  0  0  0  0  0  0  0  0
    3.9806    1.8866    1.1081 H   0  0  0  0  0  0  0  0  0  0  0  0
    3.9863   -2.4483   -1.3090 H   0  0  0  0  0  0  0  0  0  0  0  0
    6.1085    0.8734    0.4288 H   0  0  0  0  0  0  0  0  0  0  0  0
   -2.3043    3.3452   -1.9617 H   0  0  0  0  0  0  0  0  0  0  0  0
   -2.9699    3.0128   -0.3464 H   0  0  0  0  0  0  0  0  0  0  0  0
   -3.9846    2.7887   -1.8022 H   0  0  0  0  0  0  0  0  0  0  0  0
   -6.1557   -1.5703   -1.1886 H   0  0  0  0  0  0  0  0  0  0  0  0
    6.1947   -2.2502   -1.3159 H   0  0  0  0  0  0  0  0  0  0  0  0
  1  9  1  0  0  0  0
  1 20  1  0  0  0  0
  2  8  2  0  0  0  0
  3 14  1  0  0  0  0
  3 35  1  0  0  0  0
  4 19  1  0  0  0  0
  4 36  1  0  0  0  0
  5  6  1  0  0  0  0
  5  7  1  0  0  0  0
  5 21  1  0  0  0  0
  5 22  1  0  0  0  0
  6  8  1  0  0  0  0
  6 23  1  0  0  0  0
  6 24  1  0  0  0  0
  7  9  2  0  0  0  0
  7 10  1  0  0  0  0
  8 11  1  0  0  0  0
  9 12  1  0  0  0  0
 10 13  2  0  0  0  0
 10 25  1  0  0  0  0
 11 15  2  0  0  0  0
 11 16  1  0  0  0  0
 12 14  2  0  0  0  0
 12 26  1  0  0  0  0
 13 14  1  0  0  0  0
 13 27  1  0  0  0  0
 15 17  1  0  0  0  0
 15 28  1  0  0  0  0
 16 18  2  0  0  0  0
 16 29  1  0  0  0  0
 17 19  2  0  0  0  0
 17 30  1  0  0  0  0
 18 19  1  0  0  0  0
 18 31  1  0  0  0  0
 20 32  1  0  0  0  0
 20 33  1  0  0  0  0
 20 34  1  0  0  0  0
M  END
> <PUBCHEM_COMPOUND_CID>
14157896

> <PUBCHEM_CONFORMER_RMSD>
0.8

> <PUBCHEM_CONFORMER_DIVERSEORDER>
1
52
14
54
30
49
10
51
7
9
38
55
33
56
18
12
50
37
44
22
31
15
2
46
40
6
35
53
47
45
3
17
36
29
16
48
13
21
11
42
8
32
19
20
27
57
26
43
4
5
28
23
34
24
41
39
25

> <PUBCHEM_MMFF94_PARTIAL_CHARGES>
29
1 -0.36
10 -0.15
11 0.09
12 -0.15
13 -0.15
14 0.08
15 -0.15
16 -0.15
17 -0.15
18 -0.15
19 0.08
2 -0.57
20 0.28
25 0.15
26 0.15
27 0.15
28 0.15
29 0.15
3 -0.53
30 0.15
31 0.15
35 0.45
36 0.45
4 -0.53
5 0.14
6 0.06
7 -0.14
8 0.42
9 0.08

> <PUBCHEM_EFFECTIVE_ROTOR_COUNT>
5

> <PUBCHEM_PHARMACOPHORE_FEATURES>
6
1 1 acceptor
1 2 acceptor
1 3 donor
1 4 donor
6 11 15 16 17 18 19 rings
6 7 9 10 12 13 14 rings

> <PUBCHEM_HEAVY_ATOM_COUNT>
20

> <PUBCHEM_ATOM_DEF_STEREO_COUNT>
0

> <PUBCHEM_ATOM_UDEF_STEREO_COUNT>
0

> <PUBCHEM_BOND_DEF_STEREO_COUNT>
0

> <PUBCHEM_BOND_UDEF_STEREO_COUNT>
0

> <PUBCHEM_ISOTOPIC_ATOM_COUNT>
0

> <PUBCHEM_COMPONENT_COUNT>
1

> <PUBCHEM_CACTVS_TAUTO_COUNT>
21

> <PUBCHEM_CONFORMER_ID>
00D8084800000001

> <PUBCHEM_MMFF94_ENERGY>
63.8946

> <PUBCHEM_FEATURE_SELFOVERLAP>
30.446

> <PUBCHEM_SHAPE_FINGERPRINT>
10366900 7 18040432213561050227
10680689 15 17967258571965392281
11089746 13 14779551214560460558
12236239 1 16630529548169205387
12553582 1 16845568712678767520
12596602 18 15985105232102365618
12616971 3 15913323602845663320
13402501 40 18412548738258710507
13668630 136 18131073727536261758
13862211 1 18201160967126078862
14350574 20 18342177794909422435
14386348 63 18410857680673928203
14849402 71 15266762426516148346
15348495 7 10879982554794408862
15788980 27 17418093196195885312
15961568 22 17314230149856648868
17844677 252 18341618118043301696
17870717 6 18113622278837483715
1813 80 17417828252459139400
19433438 38 18408882914867006766
19489759 90 17530964674625637626
200 152 17989487437457028915
20300324 65 17385722495758325221
20645477 70 18202004318129413238
20871999 31 17822295664861815552
21033650 10 17314520223262277068
21267235 1 17846226548984684174
21307412 95 18189051053522113903
21623969 137 17917997178782512662
221357 26 18409444795484425561
22393880 68 18262514784880421538
2297311 6 17967535692477981435
23402539 116 17560804282311438712
23503953 91 12751234834947478217
23557571 272 18259981574108554708
23559900 14 17968092092226877493
2871803 45 18334293180010497034
300161 21 13840267018037461242
314194 84 17775846826501404822
3268164 11 17603297150923473565
34797466 226 17822581606794327492
351380 3 17275388703018603262
46194498 28 18261953063266782172
465052 167 17774727561976130390
5104073 3 17703509879564491298
5281201 14 18407761447767775556
59755656 520 18265614270032372353
7970288 3 17918277549562628030

> <PUBCHEM_SHAPE_MULTIPOLES>
388.11
13.85
1.99
1.3
8.07
0.74
0.01
-6.83
-3.25
-1.51
-0.45
-0.68
0.27
2.09

> <PUBCHEM_SHAPE_SELFOVERLAP>
827.537

> <PUBCHEM_SHAPE_VOLUME>
215.8

> <PUBCHEM_COORDINATE_TYPE>
2
5
10

$$$$
