9809542
  -OEChem-03181921133D

107111  0     1  0  0  0  0  0999 V2000
    0.0320   -0.6420   -2.6533 O   0  0  0  0  0  0  0  0  0  0  0  0
    5.5472    1.7527    2.5345 O   0  0  0  0  0  0  0  0  0  0  0  0
   -2.1078   -0.6058   -0.5558 O   0  0  0  0  0  0  0  0  0  0  0  0
    7.4785   -2.1696   -0.6229 O   0  0  0  0  0  0  0  0  0  0  0  0
   -3.8057   -1.0564    0.9797 O   0  0  0  0  0  0  0  0  0  0  0  0
   -2.7590   -2.9860   -1.9411 O   0  0  0  0  0  0  0  0  0  0  0  0
   -3.9693   -4.9982   -0.1615 O   0  0  0  0  0  0  0  0  0  0  0  0
   -6.1567   -3.8424    1.3335 O   0  0  0  0  0  0  0  0  0  0  0  0
   -5.6238    0.1411    2.6581 O   0  0  0  0  0  0  0  0  0  0  0  0
    2.4106    0.6796    0.7018 C   0  0  1  0  0  0  0  0  0  0  0  0
    1.1531    1.5633    0.2419 C   0  0  1  0  0  0  0  0  0  0  0  0
    3.1406    0.1633   -0.6047 C   0  0  1  0  0  0  0  0  0  0  0  0
    4.5654   -0.5227   -0.4118 C   0  0  2  0  0  0  0  0  0  0  0  0
    0.2080    0.6916   -0.6303 C   0  0  1  0  0  0  0  0  0  0  0  0
    5.4717    0.4245    0.4690 C   0  0  1  0  0  0  0  0  0  0  0  0
    3.4146    1.5149    1.5269 C   0  0  0  0  0  0  0  0  0  0  0  0
    2.1635   -0.6101   -1.5340 C   0  0  0  0  0  0  0  0  0  0  0  0
   -1.0732    1.5326   -0.7729 C   0  0  2  0  0  0  0  0  0  0  0  0
    0.9008    0.1955   -1.8969 C   0  0  1  0  0  0  0  0  0  0  0  0
    0.1502    2.0045    1.3315 C   0  0  0  0  0  0  0  0  0  0  0  0
    4.7596    0.8218    1.7941 C   0  0  2  0  0  0  0  0  0  0  0  0
    6.9912   -0.0444    0.6107 C   0  0  0  0  0  0  0  0  0  0  0  0
   -1.1649    2.2837    0.5764 C   0  0  0  0  0  0  0  0  0  0  0  0
    5.2197   -0.6716   -1.8312 C   0  0  0  0  0  0  0  0  0  0  0  0
    1.9400   -0.4924    1.6101 C   0  0  0  0  0  0  0  0  0  0  0  0
    1.5940    2.8716   -0.4972 C   0  0  0  0  0  0  0  0  0  0  0  0
    4.4327   -1.9407    0.1926 C   0  0  0  0  0  0  0  0  0  0  0  0
   -2.3322    0.7183   -1.0481 C   0  0  2  0  0  0  0  0  0  0  0  0
    7.5024   -0.7474   -0.6940 C   0  0  2  0  0  0  0  0  0  0  0  0
    6.7065   -0.3224   -1.9189 C   0  0  0  0  0  0  0  0  0  0  0  0
    7.8933    1.2153    0.7816 C   0  0  0  0  0  0  0  0  0  0  0  0
    7.2359   -0.9309    1.8491 C   0  0  0  0  0  0  0  0  0  0  0  0
   -3.5844    1.3110   -0.3637 C   0  0  0  0  0  0  0  0  0  0  0  0
   -2.5673    0.6205   -2.5606 C   0  0  0  0  0  0  0  0  0  0  0  0
   -3.8844    2.7660   -0.7455 C   0  0  0  0  0  0  0  0  0  0  0  0
   -3.3403   -1.2944   -0.3466 C   0  0  2  0  0  0  0  0  0  0  0  0
   -3.0893   -2.7862   -0.5669 C   0  0  1  0  0  0  0  0  0  0  0  0
   -5.0705    3.2909    0.0158 C   0  0  0  0  0  0  0  0  0  0  0  0
   -4.3247   -3.6157   -0.2160 C   0  0  2  0  0  0  0  0  0  0  0  0
   -5.0531   -1.6999    1.2465 C   0  0  1  0  0  0  0  0  0  0  0  0
   -4.8889   -3.2184    1.1480 C   0  0  1  0  0  0  0  0  0  0  0  0
   -6.3586    3.3021   -0.3764 C   0  0  0  0  0  0  0  0  0  0  0  0
   -5.5042   -1.2697    2.6388 C   0  0  0  0  0  0  0  0  0  0  0  0
   -7.5022    3.8432    0.4342 C   0  0  0  0  0  0  0  0  0  0  0  0
   -6.7513    2.7593   -1.7244 C   0  0  0  0  0  0  0  0  0  0  0  0
    3.3976    1.0677   -1.1702 H   0  0  0  0  0  0  0  0  0  0  0  0
   -0.0426   -0.1967   -0.0432 H   0  0  0  0  0  0  0  0  0  0  0  0
    5.5319    1.3672   -0.1000 H   0  0  0  0  0  0  0  0  0  0  0  0
    3.6487    2.4575    1.0203 H   0  0  0  0  0  0  0  0  0  0  0  0
    2.9609    1.8149    2.4812 H   0  0  0  0  0  0  0  0  0  0  0  0
   -0.9461    2.2913   -1.5549 H   0  0  0  0  0  0  0  0  0  0  0  0
    1.8531   -1.5563   -1.0772 H   0  0  0  0  0  0  0  0  0  0  0  0
    2.6572   -0.9001   -2.4681 H   0  0  0  0  0  0  0  0  0  0  0  0
    1.1691    1.0394   -2.5415 H   0  0  0  0  0  0  0  0  0  0  0  0
   -0.0519    1.2133    2.0577 H   0  0  0  0  0  0  0  0  0  0  0  0
    0.4887    2.8804    1.8951 H   0  0  0  0  0  0  0  0  0  0  0  0
    4.6287   -0.0515    2.4374 H   0  0  0  0  0  0  0  0  0  0  0  0
   -1.2284    3.3643    0.4046 H   0  0  0  0  0  0  0  0  0  0  0  0
   -1.9592    2.0162    1.2683 H   0  0  0  0  0  0  0  0  0  0  0  0
    5.0689   -1.6927   -2.2062 H   0  0  0  0  0  0  0  0  0  0  0  0
    4.7193   -0.0240   -2.5622 H   0  0  0  0  0  0  0  0  0  0  0  0
    1.3795   -0.1341    2.4774 H   0  0  0  0  0  0  0  0  0  0  0  0
    2.7647   -1.0494    2.0485 H   0  0  0  0  0  0  0  0  0  0  0  0
    1.3210   -1.2258    1.0899 H   0  0  0  0  0  0  0  0  0  0  0  0
    2.0975    3.5609    0.1880 H   0  0  0  0  0  0  0  0  0  0  0  0
    0.7520    3.4397   -0.9030 H   0  0  0  0  0  0  0  0  0  0  0  0
    2.2611    2.6933   -1.3417 H   0  0  0  0  0  0  0  0  0  0  0  0
    5.2830   -2.5797   -0.0479 H   0  0  0  0  0  0  0  0  0  0  0  0
    3.5598   -2.4744   -0.1910 H   0  0  0  0  0  0  0  0  0  0  0  0
    4.3691   -1.9383    1.2799 H   0  0  0  0  0  0  0  0  0  0  0  0
    8.5555   -0.4911   -0.8624 H   0  0  0  0  0  0  0  0  0  0  0  0
    6.8151    0.7592   -2.0668 H   0  0  0  0  0  0  0  0  0  0  0  0
    7.1161   -0.7978   -2.8190 H   0  0  0  0  0  0  0  0  0  0  0  0
    7.7120    1.7456    1.7184 H   0  0  0  0  0  0  0  0  0  0  0  0
    7.7507    1.9248   -0.0408 H   0  0  0  0  0  0  0  0  0  0  0  0
    8.9547    0.9381    0.7947 H   0  0  0  0  0  0  0  0  0  0  0  0
    6.6155   -1.8299    1.8443 H   0  0  0  0  0  0  0  0  0  0  0  0
    7.0381   -0.3971    2.7838 H   0  0  0  0  0  0  0  0  0  0  0  0
    8.2817   -1.2585    1.8887 H   0  0  0  0  0  0  0  0  0  0  0  0
    0.5144   -0.9242   -3.4490 H   0  0  0  0  0  0  0  0  0  0  0  0
    5.0895    1.9246    3.3750 H   0  0  0  0  0  0  0  0  0  0  0  0
   -4.4986    0.7853   -0.6630 H   0  0  0  0  0  0  0  0  0  0  0  0
   -3.5723    1.2114    0.7250 H   0  0  0  0  0  0  0  0  0  0  0  0
   -3.6376    0.5220   -2.7839 H   0  0  0  0  0  0  0  0  0  0  0  0
   -2.1266   -0.2663   -3.0157 H   0  0  0  0  0  0  0  0  0  0  0  0
   -2.2321    1.5102   -3.1034 H   0  0  0  0  0  0  0  0  0  0  0  0
    7.8440   -2.5163   -1.4545 H   0  0  0  0  0  0  0  0  0  0  0  0
   -4.0437    2.8513   -1.8254 H   0  0  0  0  0  0  0  0  0  0  0  0
   -3.0589    3.4485   -0.5453 H   0  0  0  0  0  0  0  0  0  0  0  0
   -4.0951   -1.0219   -1.0947 H   0  0  0  0  0  0  0  0  0  0  0  0
   -2.2236   -3.1191    0.0178 H   0  0  0  0  0  0  0  0  0  0  0  0
   -4.8387    3.6874    1.0033 H   0  0  0  0  0  0  0  0  0  0  0  0
   -5.0902   -3.5283   -0.9959 H   0  0  0  0  0  0  0  0  0  0  0  0
   -5.7952   -1.3354    0.5229 H   0  0  0  0  0  0  0  0  0  0  0  0
   -4.2255   -3.5832    1.9417 H   0  0  0  0  0  0  0  0  0  0  0  0
   -3.5188   -2.7064   -2.4797 H   0  0  0  0  0  0  0  0  0  0  0  0
   -4.7621   -1.5514    3.3933 H   0  0  0  0  0  0  0  0  0  0  0  0
   -6.4718   -1.7080    2.9010 H   0  0  0  0  0  0  0  0  0  0  0  0
   -3.2761   -5.1060    0.5118 H   0  0  0  0  0  0  0  0  0  0  0  0
   -7.1608    4.2459    1.3935 H   0  0  0  0  0  0  0  0  0  0  0  0
   -8.2302    3.0530    0.6433 H   0  0  0  0  0  0  0  0  0  0  0  0
   -8.0056    4.6504   -0.1076 H   0  0  0  0  0  0  0  0  0  0  0  0
   -7.0212    3.5820   -2.3946 H   0  0  0  0  0  0  0  0  0  0  0  0
   -7.6255    2.1064   -1.6206 H   0  0  0  0  0  0  0  0  0  0  0  0
   -5.9834    2.1577   -2.2149 H   0  0  0  0  0  0  0  0  0  0  0  0
   -6.7570   -3.5143    0.6423 H   0  0  0  0  0  0  0  0  0  0  0  0
   -5.9070    0.3932    3.5534 H   0  0  0  0  0  0  0  0  0  0  0  0
  1 19  1  0  0  0  0
  1 80  1  0  0  0  0
  2 21  1  0  0  0  0
  2 81  1  0  0  0  0
  3 28  1  0  0  0  0
  3 36  1  0  0  0  0
  4 29  1  0  0  0  0
  4 87  1  0  0  0  0
  5 36  1  0  0  0  0
  5 40  1  0  0  0  0
  6 37  1  0  0  0  0
  6 96  1  0  0  0  0
  7 39  1  0  0  0  0
  7 99  1  0  0  0  0
  8 41  1  0  0  0  0
  8106  1  0  0  0  0
  9 43  1  0  0  0  0
  9107  1  0  0  0  0
 10 11  1  0  0  0  0
 10 12  1  0  0  0  0
 10 16  1  0  0  0  0
 10 25  1  0  0  0  0
 11 14  1  0  0  0  0
 11 20  1  0  0  0  0
 11 26  1  0  0  0  0
 12 13  1  0  0  0  0
 12 17  1  0  0  0  0
 12 46  1  0  0  0  0
 13 15  1  0  0  0  0
 13 24  1  0  0  0  0
 13 27  1  0  0  0  0
 14 18  1  0  0  0  0
 14 19  1  0  0  0  0
 14 47  1  0  0  0  0
 15 21  1  0  0  0  0
 15 22  1  0  0  0  0
 15 48  1  0  0  0  0
 16 21  1  0  0  0  0
 16 49  1  0  0  0  0
 16 50  1  0  0  0  0
 17 19  1  0  0  0  0
 17 52  1  0  0  0  0
 17 53  1  0  0  0  0
 18 23  1  0  0  0  0
 18 28  1  0  0  0  0
 18 51  1  0  0  0  0
 19 54  1  0  0  0  0
 20 23  1  0  0  0  0
 20 55  1  0  0  0  0
 20 56  1  0  0  0  0
 21 57  1  0  0  0  0
 22 29  1  0  0  0  0
 22 31  1  0  0  0  0
 22 32  1  0  0  0  0
 23 58  1  0  0  0  0
 23 59  1  0  0  0  0
 24 30  1  0  0  0  0
 24 60  1  0  0  0  0
 24 61  1  0  0  0  0
 25 62  1  0  0  0  0
 25 63  1  0  0  0  0
 25 64  1  0  0  0  0
 26 65  1  0  0  0  0
 26 66  1  0  0  0  0
 26 67  1  0  0  0  0
 27 68  1  0  0  0  0
 27 69  1  0  0  0  0
 27 70  1  0  0  0  0
 28 33  1  0  0  0  0
 28 34  1  0  0  0  0
 29 30  1  0  0  0  0
 29 71  1  0  0  0  0
 30 72  1  0  0  0  0
 30 73  1  0  0  0  0
 31 74  1  0  0  0  0
 31 75  1  0  0  0  0
 31 76  1  0  0  0  0
 32 77  1  0  0  0  0
 32 78  1  0  0  0  0
 32 79  1  0  0  0  0
 33 35  1  0  0  0  0
 33 82  1  0  0  0  0
 33 83  1  0  0  0  0
 34 84  1  0  0  0  0
 34 85  1  0  0  0  0
 34 86  1  0  0  0  0
 35 38  1  0  0  0  0
 35 88  1  0  0  0  0
 35 89  1  0  0  0  0
 36 37  1  0  0  0  0
 36 90  1  0  0  0  0
 37 39  1  0  0  0  0
 37 91  1  0  0  0  0
 38 42  2  0  0  0  0
 38 92  1  0  0  0  0
 39 41  1  0  0  0  0
 39 93  1  0  0  0  0
 40 41  1  0  0  0  0
 40 43  1  0  0  0  0
 40 94  1  0  0  0  0
 41 95  1  0  0  0  0
 42 44  1  0  0  0  0
 42 45  1  0  0  0  0
 43 97  1  0  0  0  0
 43 98  1  0  0  0  0
 44100  1  0  0  0  0
 44101  1  0  0  0  0
 44102  1  0  0  0  0
 45103  1  0  0  0  0
 45104  1  0  0  0  0
 45105  1  0  0  0  0
M  END
> <PUBCHEM_COMPOUND_CID>
9809542

> <PUBCHEM_CONFORMER_RMSD>
1.2

> <PUBCHEM_CONFORMER_DIVERSEORDER>
4
16
14
17
9
15
13
1
8
3
10
11
2
12
7
6
5

> <PUBCHEM_MMFF94_PARTIAL_CHARGES>
32
1 -0.68
106 0.4
107 0.4
19 0.28
2 -0.68
21 0.28
28 0.28
29 0.28
3 -0.56
35 0.14
36 0.56
37 0.28
38 -0.29
39 0.28
4 -0.68
40 0.28
41 0.28
42 -0.28
43 0.28
44 0.14
45 0.14
5 -0.56
6 -0.68
7 -0.68
8 -0.68
80 0.4
81 0.4
87 0.4
9 -0.68
92 0.15
96 0.4
99 0.4

> <PUBCHEM_EFFECTIVE_ROTOR_COUNT>
10.4

> <PUBCHEM_PHARMACOPHORE_FEATURES>
23
1 1 acceptor
1 1 donor
1 2 acceptor
1 2 donor
1 3 acceptor
1 4 acceptor
1 4 donor
1 5 acceptor
1 6 acceptor
1 6 donor
1 7 acceptor
1 7 donor
1 8 acceptor
1 8 donor
1 9 acceptor
1 9 donor
3 22 31 32 hydrophobe
3 42 44 45 hydrophobe
5 11 14 18 20 23 rings
6 10 11 12 14 17 19 rings
6 10 12 13 15 16 21 rings
6 13 15 22 24 29 30 rings
6 5 36 37 39 40 41 rings

> <PUBCHEM_HEAVY_ATOM_COUNT>
45

> <PUBCHEM_ATOM_DEF_STEREO_COUNT>
16

> <PUBCHEM_ATOM_UDEF_STEREO_COUNT>
0

> <PUBCHEM_BOND_DEF_STEREO_COUNT>
0

> <PUBCHEM_BOND_UDEF_STEREO_COUNT>
0

> <PUBCHEM_ISOTOPIC_ATOM_COUNT>
0

> <PUBCHEM_COMPONENT_COUNT>
1

> <PUBCHEM_CACTVS_TAUTO_COUNT>
1

> <PUBCHEM_CONFORMER_ID>
0095AE8600000004

> <PUBCHEM_MMFF94_ENERGY>
223.8135

> <PUBCHEM_FEATURE_SELFOVERLAP>
116.876

> <PUBCHEM_SHAPE_FINGERPRINT>
10050765 1 18336549433605736469
10290309 65 18269006301515766855
10319926 262 18411700997465542013
10462385 53 18343019953115031575
11007060 377 18131064884415078449
11135609 12 18271533086541005864
11377469 6 17458907171119873879
11991303 11 18040710339286196541
12422481 6 17274831297920741262
13008946 335 18269282258334851337
13690498 29 18113337530821185941
13692114 37 18409451346575583469
13692115 27 17896037827500624375
13782708 43 18113891711021360506
13811026 1 18202558458503576020
14068700 675 18187932844951184262
14856354 85 16805615750423875025
15320295 40 17986392399296161055
15361156 5 18190471643185898555
15444296 121 18335141960449599261
1577012 14 17095248004101116828
19301679 30 18191593162912083611
19611394 137 18343581867464954601
21033648 29 17702641333686833976
23522609 53 17387156246062846748
23559900 14 18130493177023282056
23569943 247 14690901835303629316
249057 25 13758346791571076368
249057 3 18334857182242098541
25223398 141 18411707607852864094
25269216 80 17967827071385623542
3383291 50 18411695488124826805
3504750 166 18128257990402021735
3633792 109 16200144336028711429
392239 28 18272646887852283018
397830 11 18270960254116055480
4073 2 18412819184154517776
4144715 1 18341044224328912673
4408954 64 17317073504595855923
4938544 92 18409449176788878357
5080951 261 17967521386031693757
563151 40 18114182995560782019
563151 74 15841010913525737119
6009941 240 18411697656065589448
6086070 43 15912747475410605025
6691757 9 18261393309481029397
9896288 288 18334581231326157403

> <PUBCHEM_SHAPE_MULTIPOLES>
873.26
21.74
4.54
2.3
15.22
2.86
-0.14
-0.88
-4.84
-12.99
-0.29
0.05
0.28
3.03

> <PUBCHEM_SHAPE_SELFOVERLAP>
1824.107

> <PUBCHEM_SHAPE_VOLUME>
491.6

> <PUBCHEM_COORDINATE_TYPE>
2
5
10

$$$$
