5316877
  -OEChem-12071809222D

 35 36  0     1  0  0  0  0  0999 V2000
    3.3488    2.3524    0.0000 O   0  0  0  0  0  0  0  0  0  0  0  0
    5.3742    0.2488    0.0000 C   0  0  3  0  0  0  0  0  0  0  0  0
    4.5893    0.8684    0.0000 C   0  0  0  0  0  0  0  0  0  0  0  0
    3.6155    0.6410    0.0000 C   0  0  3  0  0  0  0  0  0  0  0  0
    5.3792   -0.7512    0.0000 C   0  0  0  0  0  0  0  0  0  0  0  0
    3.1861   -0.2621    0.0000 C   0  0  0  0  0  0  0  0  0  0  0  0
    6.3189    0.5582    0.0000 C   0  0  0  0  0  0  0  0  0  0  0  0
    4.6005   -1.3786    0.0000 C   0  0  0  0  0  0  0  0  0  0  0  0
    3.6244   -1.1609    0.0000 C   0  0  0  0  0  0  0  0  0  0  0  0
    6.3269   -1.0512    0.0000 C   0  0  0  0  0  0  0  0  0  0  0  0
    6.9065   -0.2436    0.0000 C   0  0  0  0  0  0  0  0  0  0  0  0
    2.9881    1.4197    0.0000 C   0  0  0  0  0  0  0  0  0  0  0  0
    6.6248    1.5103    0.0000 C   0  0  0  0  0  0  0  0  0  0  0  0
    4.8278   -2.3524    0.0000 C   0  0  0  0  0  0  0  0  0  0  0  0
    2.0000    1.2657    0.0000 C   0  0  0  0  0  0  0  0  0  0  0  0
    5.4826    0.8592    0.0000 H   0  0  0  0  0  0  0  0  0  0  0  0
    5.0721    1.2574    0.0000 H   0  0  0  0  0  0  0  0  0  0  0  0
    4.3175    1.4256    0.0000 H   0  0  0  0  0  0  0  0  0  0  0  0
    3.8173    1.2272    0.0000 H   0  0  0  0  0  0  0  0  0  0  0  0
    2.6994    0.1220    0.0000 H   0  0  0  0  0  0  0  0  0  0  0  0
    2.7033   -0.6511    0.0000 H   0  0  0  0  0  0  0  0  0  0  0  0
    3.0207   -1.3019    0.0000 H   0  0  0  0  0  0  0  0  0  0  0  0
    3.6275   -1.7809    0.0000 H   0  0  0  0  0  0  0  0  0  0  0  0
    6.0787   -1.6194    0.0000 H   0  0  0  0  0  0  0  0  0  0  0  0
    6.8658   -1.3578    0.0000 H   0  0  0  0  0  0  0  0  0  0  0  0
    7.5265   -0.2405    0.0000 H   0  0  0  0  0  0  0  0  0  0  0  0
    7.2151    1.3206    0.0000 H   0  0  0  0  0  0  0  0  0  0  0  0
    6.8145    2.1006    0.0000 H   0  0  0  0  0  0  0  0  0  0  0  0
    6.0345    1.7000    0.0000 H   0  0  0  0  0  0  0  0  0  0  0  0
    4.2241   -2.4934    0.0000 H   0  0  0  0  0  0  0  0  0  0  0  0
    4.9688   -2.9562    0.0000 H   0  0  0  0  0  0  0  0  0  0  0  0
    5.4316   -2.2114    0.0000 H   0  0  0  0  0  0  0  0  0  0  0  0
    1.9045    1.8783    0.0000 H   0  0  0  0  0  0  0  0  0  0  0  0
    1.3874    1.1703    0.0000 H   0  0  0  0  0  0  0  0  0  0  0  0
    2.0955    0.6531    0.0000 H   0  0  0  0  0  0  0  0  0  0  0  0
  1 12  2  0  0  0  0
  2  3  1  0  0  0  0
  2  5  1  0  0  0  0
  2  7  1  0  0  0  0
  2 16  1  0  0  0  0
  3  4  1  0  0  0  0
  3 17  1  0  0  0  0
  3 18  1  0  0  0  0
  4  6  1  0  0  0  0
  4 12  1  0  0  0  0
  4 19  1  0  0  0  0
  5  8  2  0  0  0  0
  5 10  1  0  0  0  0
  6  9  1  0  0  0  0
  6 20  1  0  0  0  0
  6 21  1  0  0  0  0
  7 11  2  0  0  0  0
  7 13  1  0  0  0  0
  8  9  1  0  0  0  0
  8 14  1  0  0  0  0
  9 22  1  0  0  0  0
  9 23  1  0  0  0  0
 10 11  1  0  0  0  0
 10 24  1  0  0  0  0
 10 25  1  0  0  0  0
 11 26  1  0  0  0  0
 12 15  1  0  0  0  0
 13 27  1  0  0  0  0
 13 28  1  0  0  0  0
 13 29  1  0  0  0  0
 14 30  1  0  0  0  0
 14 31  1  0  0  0  0
 14 32  1  0  0  0  0
 15 33  1  0  0  0  0
 15 34  1  0  0  0  0
 15 35  1  0  0  0  0
M  END
> <PUBCHEM_COMPOUND_CID>
5316877

> <PUBCHEM_COMPOUND_CANONICALIZED>
1

> <PUBCHEM_CACTVS_COMPLEXITY>
346

> <PUBCHEM_CACTVS_HBOND_ACCEPTOR>
1

> <PUBCHEM_CACTVS_HBOND_DONOR>
0

> <PUBCHEM_CACTVS_ROTATABLE_BOND>
1

> <PUBCHEM_CACTVS_SUBSKEYS>
AAADceBwIAAAAAAAAAAAAAAAAAAAAQAAAAAAAAAABAAAAACAAAAAGgAAAAAADQSAgAACAAAAAACIAqBSAAAAAAAgAAAACAEAAAgAABIAAQAAAAAAgAAIAAMIiMCOAAAAAAAAAAAAAAAAAAAAAAAAAAAAAA==

> <PUBCHEM_IUPAC_OPENEYE_NAME>
1-(3,8-dimethyl-1,3a,4,5,6,7-hexahydroazulen-5-yl)ethanone

> <PUBCHEM_IUPAC_CAS_NAME>
1-(3,8-dimethyl-1,3a,4,5,6,7-hexahydroazulen-5-yl)ethanone

> <PUBCHEM_IUPAC_NAME>
1-(3,8-dimethyl-1,3a,4,5,6,7-hexahydroazulen-5-yl)ethanone

> <PUBCHEM_IUPAC_SYSTEMATIC_NAME>
1-(3,8-dimethyl-1,3a,4,5,6,7-hexahydroazulen-5-yl)ethanone

> <PUBCHEM_IUPAC_TRADITIONAL_NAME>
1-(3,8-dimethyl-1,3a,4,5,6,7-hexahydroazulen-5-yl)ethanone

> <PUBCHEM_IUPAC_INCHI>
InChI=1S/C14H20O/c1-9-4-6-12(11(3)15)8-14-10(2)5-7-13(9)14/h5,12,14H,4,6-8H2,1-3H3

> <PUBCHEM_IUPAC_INCHIKEY>
RLXMQOKUFPBVGV-UHFFFAOYSA-N

> <PUBCHEM_XLOGP3_AA>
1.8

> <PUBCHEM_EXACT_MASS>
204.151

> <PUBCHEM_MOLECULAR_FORMULA>
C14H20O

> <PUBCHEM_MOLECULAR_WEIGHT>
204.313

> <PUBCHEM_OPENEYE_CAN_SMILES>
CC1=C2CC=C(C2CC(CC1)C(=O)C)C

> <PUBCHEM_OPENEYE_ISO_SMILES>
CC1=C2CC=C(C2CC(CC1)C(=O)C)C

> <PUBCHEM_CACTVS_TPSA>
17.1

> <PUBCHEM_MONOISOTOPIC_WEIGHT>
204.151

> <PUBCHEM_TOTAL_CHARGE>
0

> <PUBCHEM_HEAVY_ATOM_COUNT>
15

> <PUBCHEM_ATOM_DEF_STEREO_COUNT>
0

> <PUBCHEM_ATOM_UDEF_STEREO_COUNT>
2

> <PUBCHEM_BOND_DEF_STEREO_COUNT>
0

> <PUBCHEM_BOND_UDEF_STEREO_COUNT>
0

> <PUBCHEM_ISOTOPIC_ATOM_COUNT>
0

> <PUBCHEM_COMPONENT_COUNT>
1

> <PUBCHEM_CACTVS_TAUTO_COUNT>
3

> <PUBCHEM_COORDINATE_TYPE>
1
5
255

> <PUBCHEM_BONDANNOTATIONS>
2  3  3
4  12  3

$$$$
