101704409
  -OEChem-12071809282D

203212  0     1  0  0  0  0  0999 V2000
    8.5698   -0.6225    0.0000 O   0  0  0  0  0  0  0  0  0  0  0  0
    6.8671   -6.8127    0.0000 O   0  0  0  0  0  0  0  0  0  0  0  0
    7.9738    1.8403    0.0000 O   0  0  0  0  0  0  0  0  0  0  0  0
    5.1350   -6.8127    0.0000 O   0  0  0  0  0  0  0  0  0  0  0  0
    8.3375    3.5337    0.0000 O   0  0  0  0  0  0  0  0  0  0  0  0
    6.8671   -8.8127    0.0000 O   0  0  0  0  0  0  0  0  0  0  0  0
    6.0184    2.2602    0.0000 O   0  0  0  0  0  0  0  0  0  0  0  0
    5.1350   -9.8127    0.0000 O   0  0  0  0  0  0  0  0  0  0  0  0
    5.4044    4.1637    0.0000 O   0  0  0  0  0  0  0  0  0  0  0  0
    3.4030   -8.8127    0.0000 O   0  0  0  0  0  0  0  0  0  0  0  0
    6.7458    5.6471    0.0000 O   0  0  0  0  0  0  0  0  0  0  0  0
    9.6789    5.0172    0.0000 O   0  0  0  0  0  0  0  0  0  0  0  0
    7.7331   -7.3127    0.0000 O   0  0  0  0  0  0  0  0  0  0  0  0
    2.5369   -7.3127    0.0000 O   0  0  0  0  0  0  0  0  0  0  0  0
    8.5991   -9.8127    0.0000 O   0  0  0  0  0  0  0  0  0  0  0  0
   10.3312   -8.8127    0.0000 O   0  0  0  0  0  0  0  0  0  0  0  0
   10.0426    6.7106    0.0000 O   0  0  0  0  0  0  0  0  0  0  0  0
   10.3312   -6.8127    0.0000 O   0  0  0  0  0  0  0  0  0  0  0  0
    9.4651   -5.3127    0.0000 O   0  0  0  0  0  0  0  0  0  0  0  0
    6.8671   -9.8127    0.0000 O   0  0  0  0  0  0  0  0  0  0  0  0
   11.6343    4.5972    0.0000 O   0  0  0  0  0  0  0  0  0  0  0  0
   12.9757    6.0806    0.0000 O   0  0  0  0  0  0  0  0  0  0  0  0
   12.3617    7.9840    0.0000 O   0  0  0  0  0  0  0  0  0  0  0  0
    8.5991  -11.8127    0.0000 O   0  0  0  0  0  0  0  0  0  0  0  0
    6.8671  -12.8127    0.0000 O   0  0  0  0  0  0  0  0  0  0  0  0
   11.0770    9.1457    0.0000 O   0  0  0  0  0  0  0  0  0  0  0  0
    5.1350  -11.8127    0.0000 O   0  0  0  0  0  0  0  0  0  0  0  0
    9.7923   10.3074    0.0000 O   0  0  0  0  0  0  0  0  0  0  0  0
   12.4184   10.6292    0.0000 O   0  0  0  0  0  0  0  0  0  0  0  0
   11.8044   12.5326    0.0000 O   0  0  0  0  0  0  0  0  0  0  0  0
    9.8490   12.9526    0.0000 O   0  0  0  0  0  0  0  0  0  0  0  0
    5.9660   -2.1124    0.0000 C   0  0  1  0  0  0  0  0  0  0  0  0
    5.9699   -1.1124    0.0000 C   0  0  1  0  0  0  0  0  0  0  0  0
    6.8301   -2.6158    0.0000 C   0  0  1  0  0  0  0  0  0  0  0  0
    6.8421   -3.6573    0.0000 C   0  0  2  0  0  0  0  0  0  0  0  0
    6.8378   -0.6158    0.0000 C   0  0  1  0  0  0  0  0  0  0  0  0
    5.9421   -4.1816    0.0000 C   0  0  1  0  0  0  0  0  0  0  0  0
    5.0540   -2.6158    0.0000 C   0  0  0  0  0  0  0  0  0  0  0  0
    6.6324    0.3568    0.0000 C   0  0  2  0  0  0  0  0  0  0  0  0
    7.6980   -2.1191    0.0000 C   0  0  0  0  0  0  0  0  0  0  0  0
    7.7019   -1.1191    0.0000 C   0  0  1  0  0  0  0  0  0  0  0  0
    5.2354   -0.4425    0.0000 C   0  0  0  0  0  0  0  0  0  0  0  0
    5.0420   -3.6573    0.0000 C   0  0  0  0  0  0  0  0  0  0  0  0
    5.9295   -5.2665    0.0000 C   0  0  0  0  0  0  0  0  0  0  0  0
    5.6440    0.4637    0.0000 C   0  0  0  0  0  0  0  0  0  0  0  0
    7.7920   -4.1816    0.0000 C   0  0  0  0  0  0  0  0  0  0  0  0
    4.9819   -1.9350    0.0000 C   0  0  0  0  0  0  0  0  0  0  0  0
    4.9844   -1.2823    0.0000 C   0  0  0  0  0  0  0  0  0  0  0  0
    7.7062   -3.1540    0.0000 C   0  0  0  0  0  0  0  0  0  0  0  0
    6.8671   -5.8127    0.0000 C   0  0  2  0  0  0  0  0  0  0  0  0
    7.3030    1.0986    0.0000 C   0  0  2  0  0  0  0  0  0  0  0  0
    7.8046   -5.2665    0.0000 C   0  0  0  0  0  0  0  0  0  0  0  0
    4.9296   -5.2588    0.0000 C   0  0  0  0  0  0  0  0  0  0  0  0
    5.4229   -6.1287    0.0000 C   0  0  0  0  0  0  0  0  0  0  0  0
    6.5613    1.7693    0.0000 C   0  0  0  0  0  0  0  0  0  0  0  0
    8.0448    0.4278    0.0000 C   0  0  0  0  0  0  0  0  0  0  0  0
    5.6096    1.4623    0.0000 C   0  0  0  0  0  0  0  0  0  0  0  0
    6.0010   -7.3127    0.0000 C   0  0  2  0  0  0  0  0  0  0  0  0
    7.6668    2.7920    0.0000 C   0  0  2  0  0  0  0  0  0  0  0  0
    6.0010   -8.3127    0.0000 C   0  0  1  0  0  0  0  0  0  0  0  0
    6.6891    3.0020    0.0000 C   0  0  1  0  0  0  0  0  0  0  0  0
    4.8679    2.1330    0.0000 C   0  0  0  0  0  0  0  0  0  0  0  0
    5.1350   -8.8127    0.0000 C   0  0  2  0  0  0  0  0  0  0  0  0
    6.3821    3.9537    0.0000 C   0  0  2  0  0  0  0  0  0  0  0  0
    4.2690   -7.3127    0.0000 C   0  0  1  0  0  0  0  0  0  0  0  0
    8.0305    4.4854    0.0000 C   0  0  1  0  0  0  0  0  0  0  0  0
    4.2690   -8.3127    0.0000 C   0  0  1  0  0  0  0  0  0  0  0  0
    7.0528    4.6954    0.0000 C   0  0  1  0  0  0  0  0  0  0  0  0
    3.9162    1.8260    0.0000 C   0  0  0  0  0  0  0  0  0  0  0  0
    3.4030   -6.8127    0.0000 C   0  0  0  0  0  0  0  0  0  0  0  0
    8.7012    5.2271    0.0000 C   0  0  0  0  0  0  0  0  0  0  0  0
    7.7331   -8.3127    0.0000 C   0  0  2  0  0  0  0  0  0  0  0  0
    3.1745    2.4967    0.0000 C   0  0  0  0  0  0  0  0  0  0  0  0
    3.7062    0.8483    0.0000 C   0  0  0  0  0  0  0  0  0  0  0  0
    8.5991   -8.8127    0.0000 C   0  0  1  0  0  0  0  0  0  0  0  0
    9.4651   -8.3127    0.0000 C   0  0  2  0  0  0  0  0  0  0  0  0
    8.5991   -6.8127    0.0000 C   0  0  1  0  0  0  0  0  0  0  0  0
    9.4651   -7.3127    0.0000 C   0  0  1  0  0  0  0  0  0  0  0  0
   10.3496    5.7589    0.0000 C   0  0  2  0  0  0  0  0  0  0  0  0
    8.5991   -5.8127    0.0000 C   0  0  0  0  0  0  0  0  0  0  0  0
   11.3273    5.5489    0.0000 C   0  0  1  0  0  0  0  0  0  0  0  0
    7.7331  -10.3127    0.0000 C   0  0  2  0  0  0  0  0  0  0  0  0
   11.9980    6.2906    0.0000 C   0  0  2  0  0  0  0  0  0  0  0  0
   10.7133    7.4523    0.0000 C   0  0  1  0  0  0  0  0  0  0  0  0
   11.6910    7.2423    0.0000 C   0  0  1  0  0  0  0  0  0  0  0  0
    7.7331  -11.3127    0.0000 C   0  0  1  0  0  0  0  0  0  0  0  0
    6.8671  -11.8127    0.0000 C   0  0  2  0  0  0  0  0  0  0  0  0
   10.4063    8.4040    0.0000 C   0  0  0  0  0  0  0  0  0  0  0  0
    6.0010  -10.3127    0.0000 C   0  0  0  0  0  0  0  0  0  0  0  0
    6.0010  -11.3127    0.0000 C   0  0  1  0  0  0  0  0  0  0  0  0
   10.7700   10.0974    0.0000 C   0  0  2  0  0  0  0  0  0  0  0  0
   11.4407   10.8392    0.0000 C   0  0  1  0  0  0  0  0  0  0  0  0
   11.1337   11.7909    0.0000 C   0  0  2  0  0  0  0  0  0  0  0  0
    9.4853   11.2591    0.0000 C   0  0  0  0  0  0  0  0  0  0  0  0
   10.1560   12.0009    0.0000 C   0  0  1  0  0  0  0  0  0  0  0  0
    7.5678   -3.0379    0.0000 H   0  0  0  0  0  0  0  0  0  0  0  0
    7.5267   -0.1179    0.0000 H   0  0  0  0  0  0  0  0  0  0  0  0
    5.2027   -4.6009    0.0000 H   0  0  0  0  0  0  0  0  0  0  0  0
    4.8518   -2.0297    0.0000 H   0  0  0  0  0  0  0  0  0  0  0  0
    4.4420   -2.7148    0.0000 H   0  0  0  0  0  0  0  0  0  0  0  0
    6.3298    1.1511    0.0000 H   0  0  0  0  0  0  0  0  0  0  0  0
    7.9078   -2.7025    0.0000 H   0  0  0  0  0  0  0  0  0  0  0  0
    8.3090   -2.0138    0.0000 H   0  0  0  0  0  0  0  0  0  0  0  0
    8.2376   -1.4312    0.0000 H   0  0  0  0  0  0  0  0  0  0  0  0
    4.7001   -0.1297    0.0000 H   0  0  0  0  0  0  0  0  0  0  0  0
    4.8680   -0.9420    0.0000 H   0  0  0  0  0  0  0  0  0  0  0  0
    4.4324   -3.5442    0.0000 H   0  0  0  0  0  0  0  0  0  0  0  0
    4.8262   -4.2386    0.0000 H   0  0  0  0  0  0  0  0  0  0  0  0
    5.7751    1.0697    0.0000 H   0  0  0  0  0  0  0  0  0  0  0  0
    5.0552    0.6577    0.0000 H   0  0  0  0  0  0  0  0  0  0  0  0
    8.4041   -4.2806    0.0000 H   0  0  0  0  0  0  0  0  0  0  0  0
    7.9943   -3.5956    0.0000 H   0  0  0  0  0  0  0  0  0  0  0  0
    5.0919   -1.3248    0.0000 H   0  0  0  0  0  0  0  0  0  0  0  0
    4.3717   -1.8250    0.0000 H   0  0  0  0  0  0  0  0  0  0  0  0
    4.8719   -2.5452    0.0000 H   0  0  0  0  0  0  0  0  0  0  0  0
    4.8791   -0.6713    0.0000 H   0  0  0  0  0  0  0  0  0  0  0  0
    4.3734   -1.3876    0.0000 H   0  0  0  0  0  0  0  0  0  0  0  0
    5.0897   -1.8933    0.0000 H   0  0  0  0  0  0  0  0  0  0  0  0
    8.0183   -3.6897    0.0000 H   0  0  0  0  0  0  0  0  0  0  0  0
    8.2420   -2.8419    0.0000 H   0  0  0  0  0  0  0  0  0  0  0  0
    7.3942   -2.6183    0.0000 H   0  0  0  0  0  0  0  0  0  0  0  0
    7.4046   -6.1216    0.0000 H   0  0  0  0  0  0  0  0  0  0  0  0
    8.0204   -5.8478    0.0000 H   0  0  0  0  0  0  0  0  0  0  0  0
    8.4142   -5.1534    0.0000 H   0  0  0  0  0  0  0  0  0  0  0  0
    4.9343   -4.6388    0.0000 H   0  0  0  0  0  0  0  0  0  0  0  0
    4.8883   -5.8146    0.0000 H   0  0  0  0  0  0  0  0  0  0  0  0
    5.1087   -6.6632    0.0000 H   0  0  0  0  0  0  0  0  0  0  0  0
    5.9574   -6.4428    0.0000 H   0  0  0  0  0  0  0  0  0  0  0  0
    4.3096   -5.2541    0.0000 H   0  0  0  0  0  0  0  0  0  0  0  0
    4.9248   -5.8788    0.0000 H   0  0  0  0  0  0  0  0  0  0  0  0
    9.1056   -0.9345    0.0000 H   0  0  0  0  0  0  0  0  0  0  0  0
    7.0507    2.1499    0.0000 H   0  0  0  0  0  0  0  0  0  0  0  0
    6.2714    2.3173    0.0000 H   0  0  0  0  0  0  0  0  0  0  0  0
    7.6289   -0.0320    0.0000 H   0  0  0  0  0  0  0  0  0  0  0  0
    8.5046    0.0120    0.0000 H   0  0  0  0  0  0  0  0  0  0  0  0
    8.4606    0.8877    0.0000 H   0  0  0  0  0  0  0  0  0  0  0  0
    5.1202    1.0816    0.0000 H   0  0  0  0  0  0  0  0  0  0  0  0
    5.8995    0.9142    0.0000 H   0  0  0  0  0  0  0  0  0  0  0  0
    6.0010   -6.6927    0.0000 H   0  0  0  0  0  0  0  0  0  0  0  0
    7.2509    2.3321    0.0000 H   0  0  0  0  0  0  0  0  0  0  0  0
    6.0010   -8.9327    0.0000 H   0  0  0  0  0  0  0  0  0  0  0  0
    6.0829    3.1322    0.0000 H   0  0  0  0  0  0  0  0  0  0  0  0
    4.9981    2.7391    0.0000 H   0  0  0  0  0  0  0  0  0  0  0  0
    4.5981   -9.1227    0.0000 H   0  0  0  0  0  0  0  0  0  0  0  0
    6.1917    4.5437    0.0000 H   0  0  0  0  0  0  0  0  0  0  0  0
    4.2690   -6.6927    0.0000 H   0  0  0  0  0  0  0  0  0  0  0  0
    8.6366    4.3552    0.0000 H   0  0  0  0  0  0  0  0  0  0  0  0
    3.7320   -8.0027    0.0000 H   0  0  0  0  0  0  0  0  0  0  0  0
    7.4686    5.1553    0.0000 H   0  0  0  0  0  0  0  0  0  0  0  0
    5.4122    2.3904    0.0000 H   0  0  0  0  0  0  0  0  0  0  0  0
    3.8015   -6.3377    0.0000 H   0  0  0  0  0  0  0  0  0  0  0  0
    3.0044   -6.3377    0.0000 H   0  0  0  0  0  0  0  0  0  0  0  0
    8.9347    5.8015    0.0000 H   0  0  0  0  0  0  0  0  0  0  0  0
    8.1761    5.5568    0.0000 H   0  0  0  0  0  0  0  0  0  0  0  0
    7.1962   -8.0027    0.0000 H   0  0  0  0  0  0  0  0  0  0  0  0
    4.5981  -10.1227    0.0000 H   0  0  0  0  0  0  0  0  0  0  0  0
    5.2140    4.7537    0.0000 H   0  0  0  0  0  0  0  0  0  0  0  0
    3.1000    0.9785    0.0000 H   0  0  0  0  0  0  0  0  0  0  0  0
    3.5760    0.2421    0.0000 H   0  0  0  0  0  0  0  0  0  0  0  0
    4.3124    0.7181    0.0000 H   0  0  0  0  0  0  0  0  0  0  0  0
    3.5903    2.9566    0.0000 H   0  0  0  0  0  0  0  0  0  0  0  0
    2.7146    2.9125    0.0000 H   0  0  0  0  0  0  0  0  0  0  0  0
    2.7586    2.0368    0.0000 H   0  0  0  0  0  0  0  0  0  0  0  0
    3.4030   -9.4327    0.0000 H   0  0  0  0  0  0  0  0  0  0  0  0
    7.1616    6.1070    0.0000 H   0  0  0  0  0  0  0  0  0  0  0  0
    8.0622   -9.1227    0.0000 H   0  0  0  0  0  0  0  0  0  0  0  0
    2.0000   -7.0027    0.0000 H   0  0  0  0  0  0  0  0  0  0  0  0
   10.0021   -8.0027    0.0000 H   0  0  0  0  0  0  0  0  0  0  0  0
    8.0622   -6.5027    0.0000 H   0  0  0  0  0  0  0  0  0  0  0  0
    9.4651   -6.6927    0.0000 H   0  0  0  0  0  0  0  0  0  0  0  0
    9.7434    5.8891    0.0000 H   0  0  0  0  0  0  0  0  0  0  0  0
    8.3871   -5.2300    0.0000 H   0  0  0  0  0  0  0  0  0  0  0  0
    7.9885   -5.9203    0.0000 H   0  0  0  0  0  0  0  0  0  0  0  0
   10.9115    5.0890    0.0000 H   0  0  0  0  0  0  0  0  0  0  0  0
    8.2700  -10.6227    0.0000 H   0  0  0  0  0  0  0  0  0  0  0  0
   10.8681   -8.5027    0.0000 H   0  0  0  0  0  0  0  0  0  0  0  0
   10.3312   -6.1927    0.0000 H   0  0  0  0  0  0  0  0  0  0  0  0
   12.4138    6.7505    0.0000 H   0  0  0  0  0  0  0  0  0  0  0  0
   10.1071    7.5825    0.0000 H   0  0  0  0  0  0  0  0  0  0  0  0
   11.5007    7.8324    0.0000 H   0  0  0  0  0  0  0  0  0  0  0  0
    7.7331  -11.9327    0.0000 H   0  0  0  0  0  0  0  0  0  0  0  0
    9.4651   -4.6927    0.0000 H   0  0  0  0  0  0  0  0  0  0  0  0
   12.2405    4.4670    0.0000 H   0  0  0  0  0  0  0  0  0  0  0  0
    6.3301  -12.1227    0.0000 H   0  0  0  0  0  0  0  0  0  0  0  0
   10.0256    8.8934    0.0000 H   0  0  0  0  0  0  0  0  0  0  0  0
    9.8583    8.1141    0.0000 H   0  0  0  0  0  0  0  0  0  0  0  0
    5.7890   -9.7300    0.0000 H   0  0  0  0  0  0  0  0  0  0  0  0
    5.3905  -10.4203    0.0000 H   0  0  0  0  0  0  0  0  0  0  0  0
    5.4641  -11.0027    0.0000 H   0  0  0  0  0  0  0  0  0  0  0  0
   13.3915    6.5405    0.0000 H   0  0  0  0  0  0  0  0  0  0  0  0
   12.9679    7.8538    0.0000 H   0  0  0  0  0  0  0  0  0  0  0  0
    8.5991  -12.4327    0.0000 H   0  0  0  0  0  0  0  0  0  0  0  0
    7.4040  -13.1227    0.0000 H   0  0  0  0  0  0  0  0  0  0  0  0
    4.5981  -11.5027    0.0000 H   0  0  0  0  0  0  0  0  0  0  0  0
   10.3542    9.6376    0.0000 H   0  0  0  0  0  0  0  0  0  0  0  0
   11.6311   10.2491    0.0000 H   0  0  0  0  0  0  0  0  0  0  0  0
   10.9434   12.3809    0.0000 H   0  0  0  0  0  0  0  0  0  0  0  0
    9.1046   11.7485    0.0000 H   0  0  0  0  0  0  0  0  0  0  0  0
    8.9373   10.9692    0.0000 H   0  0  0  0  0  0  0  0  0  0  0  0
    9.5498   12.1311    0.0000 H   0  0  0  0  0  0  0  0  0  0  0  0
   12.8343   11.0890    0.0000 H   0  0  0  0  0  0  0  0  0  0  0  0
   11.6141   13.1227    0.0000 H   0  0  0  0  0  0  0  0  0  0  0  0
    9.2429   13.0828    0.0000 H   0  0  0  0  0  0  0  0  0  0  0  0
 41  1  1  6  0  0  0
  1131  1  0  0  0  0
 50  2  1  6  0  0  0
 58  2  1  1  0  0  0
 51  3  1  6  0  0  0
 59  3  1  1  0  0  0
  4 58  1  0  0  0  0
  4 65  1  0  0  0  0
  5 59  1  0  0  0  0
  5 66  1  0  0  0  0
 60  6  1  6  0  0  0
 72  6  1  6  0  0  0
 61  7  1  6  0  0  0
  7150  1  0  0  0  0
 63  8  1  1  0  0  0
  8156  1  0  0  0  0
 64  9  1  1  0  0  0
  9157  1  0  0  0  0
 67 10  1  6  0  0  0
 10164  1  0  0  0  0
 68 11  1  6  0  0  0
 11165  1  0  0  0  0
 12 71  1  0  0  0  0
 79 12  1  6  0  0  0
 13 72  1  0  0  0  0
 13 77  1  0  0  0  0
 14 70  1  0  0  0  0
 14167  1  0  0  0  0
 75 15  1  1  0  0  0
 82 15  1  1  0  0  0
 76 16  1  6  0  0  0
 16176  1  0  0  0  0
 17 79  1  0  0  0  0
 17 84  1  0  0  0  0
 78 18  1  1  0  0  0
 18177  1  0  0  0  0
 19 80  1  0  0  0  0
 19182  1  0  0  0  0
 20 82  1  0  0  0  0
 20 89  1  0  0  0  0
 81 21  1  1  0  0  0
 21183  1  0  0  0  0
 83 22  1  6  0  0  0
 22190  1  0  0  0  0
 85 23  1  1  0  0  0
 23191  1  0  0  0  0
 86 24  1  6  0  0  0
 24192  1  0  0  0  0
 87 25  1  1  0  0  0
 25193  1  0  0  0  0
 26 88  1  0  0  0  0
 91 26  1  6  0  0  0
 90 27  1  6  0  0  0
 27194  1  0  0  0  0
 28 91  1  0  0  0  0
 28 94  1  0  0  0  0
 92 29  1  1  0  0  0
 29201  1  0  0  0  0
 93 30  1  6  0  0  0
 30202  1  0  0  0  0
 95 31  1  1  0  0  0
 31203  1  0  0  0  0
 32 33  1  0  0  0  0
 32 34  1  0  0  0  0
 32 38  1  0  0  0  0
 32 47  1  6  0  0  0
 33 36  1  0  0  0  0
 33 42  1  0  0  0  0
 33 48  1  1  0  0  0
 34 35  1  0  0  0  0
 34 40  1  0  0  0  0
 34 96  1  1  0  0  0
 35 37  1  0  0  0  0
 35 46  1  0  0  0  0
 35 49  1  6  0  0  0
 36 39  1  0  0  0  0
 36 41  1  0  0  0  0
 36 97  1  6  0  0  0
 37 43  1  0  0  0  0
 37 44  1  0  0  0  0
 37 98  1  1  0  0  0
 38 43  1  0  0  0  0
 38 99  1  0  0  0  0
 38100  1  0  0  0  0
 39 45  1  0  0  0  0
 39 51  1  0  0  0  0
 39101  1  1  0  0  0
 40 41  1  0  0  0  0
 40102  1  0  0  0  0
 40103  1  0  0  0  0
 41104  1  0  0  0  0
 42 45  1  0  0  0  0
 42105  1  0  0  0  0
 42106  1  0  0  0  0
 43107  1  0  0  0  0
 43108  1  0  0  0  0
 44 50  1  0  0  0  0
 44 53  1  0  0  0  0
 44 54  1  0  0  0  0
 45109  1  0  0  0  0
 45110  1  0  0  0  0
 46 52  1  0  0  0  0
 46111  1  0  0  0  0
 46112  1  0  0  0  0
 47113  1  0  0  0  0
 47114  1  0  0  0  0
 47115  1  0  0  0  0
 48116  1  0  0  0  0
 48117  1  0  0  0  0
 48118  1  0  0  0  0
 49119  1  0  0  0  0
 49120  1  0  0  0  0
 49121  1  0  0  0  0
 50 52  1  0  0  0  0
 50122  1  0  0  0  0
 51 55  1  0  0  0  0
 51 56  1  0  0  0  0
 52123  1  0  0  0  0
 52124  1  0  0  0  0
 53125  1  0  0  0  0
 53129  1  0  0  0  0
 53130  1  0  0  0  0
 54126  1  0  0  0  0
 54127  1  0  0  0  0
 54128  1  0  0  0  0
 55 57  1  0  0  0  0
 55132  1  0  0  0  0
 55133  1  0  0  0  0
 56134  1  0  0  0  0
 56135  1  0  0  0  0
 56136  1  0  0  0  0
 57 62  1  0  0  0  0
 57137  1  0  0  0  0
 57138  1  0  0  0  0
 58 60  1  0  0  0  0
 58139  1  0  0  0  0
 59 61  1  0  0  0  0
 59140  1  0  0  0  0
 60 63  1  0  0  0  0
 60141  1  0  0  0  0
 61 64  1  0  0  0  0
 61142  1  0  0  0  0
 62 69  2  0  0  0  0
 62143  1  0  0  0  0
 63 67  1  0  0  0  0
 63144  1  0  0  0  0
 64 68  1  0  0  0  0
 64145  1  0  0  0  0
 65 67  1  0  0  0  0
 65 70  1  1  0  0  0
 65146  1  0  0  0  0
 66 68  1  0  0  0  0
 66 71  1  1  0  0  0
 66147  1  0  0  0  0
 67148  1  0  0  0  0
 68149  1  0  0  0  0
 69 73  1  0  0  0  0
 69 74  1  0  0  0  0
 70151  1  0  0  0  0
 70152  1  0  0  0  0
 71153  1  0  0  0  0
 71154  1  0  0  0  0
 72 75  1  0  0  0  0
 72155  1  0  0  0  0
 73161  1  0  0  0  0
 73162  1  0  0  0  0
 73163  1  0  0  0  0
 74158  1  0  0  0  0
 74159  1  0  0  0  0
 74160  1  0  0  0  0
 75 76  1  0  0  0  0
 75166  1  0  0  0  0
 76 78  1  0  0  0  0
 76168  1  0  0  0  0
 77 78  1  0  0  0  0
 77 80  1  6  0  0  0
 77169  1  0  0  0  0
 78170  1  0  0  0  0
 79 81  1  0  0  0  0
 79171  1  0  0  0  0
 80172  1  0  0  0  0
 80173  1  0  0  0  0
 81 83  1  0  0  0  0
 81174  1  0  0  0  0
 82 86  1  0  0  0  0
 82175  1  0  0  0  0
 83 85  1  0  0  0  0
 83178  1  0  0  0  0
 84 85  1  0  0  0  0
 84 88  1  6  0  0  0
 84179  1  0  0  0  0
 85180  1  0  0  0  0
 86 87  1  0  0  0  0
 86181  1  0  0  0  0
 87 90  1  0  0  0  0
 87184  1  0  0  0  0
 88185  1  0  0  0  0
 88186  1  0  0  0  0
 89 90  1  0  0  0  0
 89187  1  0  0  0  0
 89188  1  0  0  0  0
 90189  1  0  0  0  0
 91 92  1  0  0  0  0
 91195  1  0  0  0  0
 92 93  1  0  0  0  0
 92196  1  0  0  0  0
 93 95  1  0  0  0  0
 93197  1  0  0  0  0
 94 95  1  0  0  0  0
 94198  1  0  0  0  0
 94199  1  0  0  0  0
 95200  1  0  0  0  0
M  END
> <PUBCHEM_COMPOUND_CID>
101704409

> <PUBCHEM_COMPOUND_CANONICALIZED>
1

> <PUBCHEM_CACTVS_COMPLEXITY>
2540

> <PUBCHEM_CACTVS_HBOND_ACCEPTOR>
31

> <PUBCHEM_CACTVS_HBOND_DONOR>
19

> <PUBCHEM_CACTVS_ROTATABLE_BOND>
20

> <PUBCHEM_CACTVS_SUBSKEYS>
AAADcfB8PgAAAAAAAAAAAAAAAAAAAYAAAAA0aNEiQAAAAGDAAAAAGgAACAAAD1SwgAMCCAAABgCAAiBCAAAAAAAgAAAACAAAAAgREAIAAQAiQAAFgAAPAAPA4PwPgAAAAAAAAADAAAYAADAAAQAACAAAAA==

> <PUBCHEM_IUPAC_OPENEYE_NAME>
(2R,3R,4S,5S,6R)-2-[[(2R,3S,4S,5R,6S)-6-[(1S)-1-[(3S,5R,8R,9R,10R,12R,13R,14R,17S)-3-[(2R,3R,4S,5S,6R)-3-[(2S,3R,4S,5S,6R)-4,5-dihydroxy-6-(hydroxymethyl)-3-[(2S,3R,4S,5R)-3,4,5-trihydroxytetrahydropyran-2-yl]oxy-tetrahydropyran-2-yl]oxy-4,5-dihydroxy-6-(hydroxymethyl)tetrahydropyran-2-yl]oxy-12-hydroxy-4,4,8,10,14-pentamethyl-2,3,5,6,7,9,11,12,13,15,16,17-dodecahydro-1H-cyclopenta[a]phenanthren-17-yl]-1,5-dimethyl-hex-4-enoxy]-3,4,5-trihydroxy-tetrahydropyran-2-yl]methoxy]-6-[[(2S,3R,4S,5R)-3,4,5-trihydroxytetrahydropyran-2-yl]oxymethyl]tetrahydropyran-3,4,5-triol

> <PUBCHEM_IUPAC_CAS_NAME>
(2R,3R,4S,5S,6R)-2-[[(2R,3S,4S,5R,6S)-6-[(2S)-2-[(3S,5R,8R,9R,10R,12R,13R,14R,17S)-3-[[(2R,3R,4S,5S,6R)-3-[[(2S,3R,4S,5S,6R)-4,5-dihydroxy-6-(hydroxymethyl)-3-[[(2S,3R,4S,5R)-3,4,5-trihydroxy-2-oxanyl]oxy]-2-oxanyl]oxy]-4,5-dihydroxy-6-(hydroxymethyl)-2-oxanyl]oxy]-12-hydroxy-4,4,8,10,14-pentamethyl-2,3,5,6,7,9,11,12,13,15,16,17-dodecahydro-1H-cyclopenta[a]phenanthren-17-yl]-6-methylhept-5-en-2-yl]oxy-3,4,5-trihydroxy-2-oxanyl]methoxy]-6-[[(2S,3R,4S,5R)-3,4,5-trihydroxy-2-oxanyl]oxymethyl]oxane-3,4,5-triol

> <PUBCHEM_IUPAC_NAME>
(2R,3R,4S,5S,6R)-2-[[(2R,3S,4S,5R,6S)-6-[(2S)-2-[(3S,5R,8R,9R,10R,12R,13R,14R,17S)-3-[(2R,3R,4S,5S,6R)-3-[(2S,3R,4S,5S,6R)-4,5-dihydroxy-6-(hydroxymethyl)-3-[(2S,3R,4S,5R)-3,4,5-trihydroxyoxan-2-yl]oxyoxan-2-yl]oxy-4,5-dihydroxy-6-(hydroxymethyl)oxan-2-yl]oxy-12-hydroxy-4,4,8,10,14-pentamethyl-2,3,5,6,7,9,11,12,13,15,16,17-dodecahydro-1H-cyclopenta[a]phenanthren-17-yl]-6-methylhept-5-en-2-yl]oxy-3,4,5-trihydroxyoxan-2-yl]methoxy]-6-[[(2S,3R,4S,5R)-3,4,5-trihydroxyoxan-2-yl]oxymethyl]oxane-3,4,5-triol

> <PUBCHEM_IUPAC_SYSTEMATIC_NAME>
(2R,3R,4S,5S,6R)-2-[[(2R,3S,4S,5R,6S)-6-[(2S)-2-[(3S,5R,8R,9R,10R,12R,13R,14R,17S)-3-[(2R,3R,4S,5S,6R)-6-(hydroxymethyl)-3-[(2S,3R,4S,5S,6R)-6-(hydroxymethyl)-4,5-bis(oxidanyl)-3-[(2S,3R,4S,5R)-3,4,5-tris(oxidanyl)oxan-2-yl]oxy-oxan-2-yl]oxy-4,5-bis(oxidanyl)oxan-2-yl]oxy-4,4,8,10,14-pentamethyl-12-oxidanyl-2,3,5,6,7,9,11,12,13,15,16,17-dodecahydro-1H-cyclopenta[a]phenanthren-17-yl]-6-methyl-hept-5-en-2-yl]oxy-3,4,5-tris(oxidanyl)oxan-2-yl]methoxy]-6-[[(2S,3R,4S,5R)-3,4,5-tris(oxidanyl)oxan-2-yl]oxymethyl]oxane-3,4,5-triol

> <PUBCHEM_IUPAC_TRADITIONAL_NAME>
(2R,3R,4S,5S,6R)-2-[[(2R,3S,4S,5R,6S)-6-[(1S)-1-[(3S,5R,8R,9R,10R,12R,13R,14R,17S)-3-[(2R,3R,4S,5S,6R)-3-[(2S,3R,4S,5S,6R)-4,5-dihydroxy-6-methylol-3-[(2S,3R,4S,5R)-3,4,5-trihydroxytetrahydropyran-2-yl]oxy-tetrahydropyran-2-yl]oxy-4,5-dihydroxy-6-methylol-tetrahydropyran-2-yl]oxy-12-hydroxy-4,4,8,10,14-pentamethyl-2,3,5,6,7,9,11,12,13,15,16,17-dodecahydro-1H-cyclopenta[a]phenanthren-17-yl]-1,5-dimethyl-hex-4-enoxy]-3,4,5-trihydroxy-tetrahydropyran-2-yl]methoxy]-6-[[(2S,3R,4S,5R)-3,4,5-trihydroxytetrahydropyran-2-yl]oxymethyl]tetrahydropyran-3,4,5-triol

> <PUBCHEM_IUPAC_INCHI>
InChI=1S/C64H108O31/c1-25(2)10-9-14-64(8,95-57-51(83)45(77)43(75)33(91-57)24-87-55-50(82)44(76)42(74)32(90-55)23-86-54-48(80)38(70)28(68)21-84-54)26-11-16-63(7)37(26)27(67)18-35-61(5)15-13-36(60(3,4)34(61)12-17-62(35,63)6)92-58-52(46(78)40(72)30(19-65)88-58)94-59-53(47(79)41(73)31(20-66)89-59)93-56-49(81)39(71)29(69)22-85-56/h10,26-59,65-83H,9,11-24H2,1-8H3/t26-,27+,28+,29+,30+,31+,32+,33+,34-,35+,36-,37-,38-,39-,40+,41+,42+,43+,44-,45-,46-,47-,48+,49+,50+,51+,52+,53+,54-,55+,56-,57-,58-,59-,61-,62+,63+,64-/m0/s1

> <PUBCHEM_IUPAC_INCHIKEY>
UIFSQNKEIFIEJO-SQQCDOLMSA-N

> <PUBCHEM_XLOGP3_AA>
-3.3

> <PUBCHEM_EXACT_MASS>
1372.687

> <PUBCHEM_MOLECULAR_FORMULA>
C64H108O31

> <PUBCHEM_MOLECULAR_WEIGHT>
1373.537

> <PUBCHEM_OPENEYE_CAN_SMILES>
CC(=CCCC(C)(C1CCC2(C1C(CC3C2(CCC4C3(CCC(C4(C)C)OC5C(C(C(C(O5)CO)O)O)OC6C(C(C(C(O6)CO)O)O)OC7C(C(C(CO7)O)O)O)C)C)O)C)OC8C(C(C(C(O8)COC9C(C(C(C(O9)COC1C(C(C(CO1)O)O)O)O)O)O)O)O)O)C

> <PUBCHEM_OPENEYE_ISO_SMILES>
CC(=CCC[C@@](C)([C@H]1CC[C@@]2([C@@H]1[C@@H](C[C@H]3[C@]2(CC[C@@H]4[C@@]3(CC[C@@H](C4(C)C)O[C@H]5[C@@H]([C@H]([C@@H]([C@H](O5)CO)O)O)O[C@H]6[C@@H]([C@H]([C@@H]([C@H](O6)CO)O)O)O[C@H]7[C@@H]([C@H]([C@@H](CO7)O)O)O)C)C)O)C)O[C@H]8[C@@H]([C@H]([C@@H]([C@H](O8)CO[C@H]9[C@@H]([C@H]([C@@H]([C@H](O9)CO[C@H]1[C@@H]([C@H]([C@@H](CO1)O)O)O)O)O)O)O)O)O)C

> <PUBCHEM_CACTVS_TPSA>
495

> <PUBCHEM_MONOISOTOPIC_WEIGHT>
1372.687

> <PUBCHEM_TOTAL_CHARGE>
0

> <PUBCHEM_HEAVY_ATOM_COUNT>
95

> <PUBCHEM_ATOM_DEF_STEREO_COUNT>
38

> <PUBCHEM_ATOM_UDEF_STEREO_COUNT>
0

> <PUBCHEM_BOND_DEF_STEREO_COUNT>
0

> <PUBCHEM_BOND_UDEF_STEREO_COUNT>
0

> <PUBCHEM_ISOTOPIC_ATOM_COUNT>
0

> <PUBCHEM_COMPONENT_COUNT>
1

> <PUBCHEM_CACTVS_TAUTO_COUNT>
1

> <PUBCHEM_COORDINATE_TYPE>
1
5
255

> <PUBCHEM_BONDANNOTATIONS>
41  1  6
67  10  6
68  11  6
79  12  6
75  15  5
82  15  5
76  16  6
78  18  5
50  2  6
58  2  5
81  21  5
83  22  6
85  23  5
86  24  6
87  25  5
91  26  6
90  27  6
92  29  5
51  3  6
59  3  5
93  30  6
95  31  5
32  47  6
33  48  5
34  96  5
35  49  6
36  97  6
37  98  5
39  101  5
60  6  6
72  6  6
65  70  5
66  71  5
61  7  6
77  80  6
63  8  5
84  88  6
64  9  5

$$$$
