6995104
  -OEChem-12071809312D

 29 28  0     1  0  0  0  0  0999 V2000
    4.2690    3.3100    0.0000 O   0  0  0  0  0  0  0  0  0  0  0  0
    2.5369    2.3100    0.0000 N   0  3  0  0  0  0  0  0  0  0  0  0
    5.1350   -1.1900    0.0000 N   0  3  0  0  0  0  0  0  0  0  0  0
    5.1350    1.8100    0.0000 N   0  0  0  0  0  0  0  0  0  0  0  0
    6.0010   -2.6900    0.0000 N   0  0  0  0  0  0  0  0  0  0  0  0
    4.2690   -2.6900    0.0000 N   0  0  0  0  0  0  0  0  0  0  0  0
    3.4030    0.8100    0.0000 C   0  0  0  0  0  0  0  0  0  0  0  0
    3.4030    1.8100    0.0000 C   0  0  1  0  0  0  0  0  0  0  0  0
    4.2690    0.3100    0.0000 C   0  0  0  0  0  0  0  0  0  0  0  0
    4.2690   -0.6900    0.0000 C   0  0  0  0  0  0  0  0  0  0  0  0
    4.2690    2.3100    0.0000 C   0  0  0  0  0  0  0  0  0  0  0  0
    5.1350   -2.1900    0.0000 C   0  0  0  0  0  0  0  0  0  0  0  0
    2.7924    0.9177    0.0000 H   0  0  0  0  0  0  0  0  0  0  0  0
    3.1909    0.2274    0.0000 H   0  0  0  0  0  0  0  0  0  0  0  0
    3.4030    2.4300    0.0000 H   0  0  0  0  0  0  0  0  0  0  0  0
    4.8796    0.2023    0.0000 H   0  0  0  0  0  0  0  0  0  0  0  0
    4.4810    0.8926    0.0000 H   0  0  0  0  0  0  0  0  0  0  0  0
    3.6584   -0.5823    0.0000 H   0  0  0  0  0  0  0  0  0  0  0  0
    4.0569   -1.2726    0.0000 H   0  0  0  0  0  0  0  0  0  0  0  0
    2.0000    2.6200    0.0000 H   0  0  0  0  0  0  0  0  0  0  0  0
    2.2269    1.7731    0.0000 H   0  0  0  0  0  0  0  0  0  0  0  0
    2.8469    2.8469    0.0000 H   0  0  0  0  0  0  0  0  0  0  0  0
    5.6720   -0.8800    0.0000 H   0  0  0  0  0  0  0  0  0  0  0  0
    5.6720    2.1200    0.0000 H   0  0  0  0  0  0  0  0  0  0  0  0
    5.1350    1.1900    0.0000 H   0  0  0  0  0  0  0  0  0  0  0  0
    6.0010   -3.3100    0.0000 H   0  0  0  0  0  0  0  0  0  0  0  0
    6.5380   -2.3800    0.0000 H   0  0  0  0  0  0  0  0  0  0  0  0
    4.2690   -3.3100    0.0000 H   0  0  0  0  0  0  0  0  0  0  0  0
    3.7320   -2.3800    0.0000 H   0  0  0  0  0  0  0  0  0  0  0  0
  1 11  2  0  0  0  0
  8  2  1  6  0  0  0
  2 20  1  0  0  0  0
  2 21  1  0  0  0  0
  2 22  1  0  0  0  0
  3 10  1  0  0  0  0
  3 12  2  0  0  0  0
  3 23  1  0  0  0  0
  4 11  1  0  0  0  0
  4 24  1  0  0  0  0
  4 25  1  0  0  0  0
  5 12  1  0  0  0  0
  5 26  1  0  0  0  0
  5 27  1  0  0  0  0
  6 12  1  0  0  0  0
  6 28  1  0  0  0  0
  6 29  1  0  0  0  0
  7  8  1  0  0  0  0
  7  9  1  0  0  0  0
  7 13  1  0  0  0  0
  7 14  1  0  0  0  0
  8 11  1  0  0  0  0
  8 15  1  0  0  0  0
  9 10  1  0  0  0  0
  9 16  1  0  0  0  0
  9 17  1  0  0  0  0
 10 18  1  0  0  0  0
 10 19  1  0  0  0  0
M  CHG  2   2   1   3   1
M  END
> <PUBCHEM_COMPOUND_CID>
6995104

> <PUBCHEM_COMPOUND_CANONICALIZED>
1

> <PUBCHEM_CACTVS_COMPLEXITY>
175

> <PUBCHEM_CACTVS_HBOND_ACCEPTOR>
1

> <PUBCHEM_CACTVS_HBOND_DONOR>
5

> <PUBCHEM_CACTVS_ROTATABLE_BOND>
5

> <PUBCHEM_CACTVS_SUBSKEYS>
AAADceBjoAAAAAAAAAAAAAAAAAAAAAAAAAAAAAAAAAAAAAAAAAAAHgAQAAAACCjBgAQBAALAAAAoAAEQNAAAAAGAAAAAAIGAAAAAQBIAgAAAAAAAEAAAAAAYAQAAAAAAAAAAAAAAAAAAAAAAAAAAAAAAAA==

> <PUBCHEM_IUPAC_OPENEYE_NAME>
[(4S)-5-amino-4-azaniumyl-5-oxo-pentyl]-(diaminomethylene)ammonium

> <PUBCHEM_IUPAC_CAS_NAME>
[(4S)-5-amino-4-ammonio-5-oxopentyl]-(diaminomethylidene)ammonium

> <PUBCHEM_IUPAC_NAME>
[(4S)-5-amino-4-azaniumyl-5-oxopentyl]-(diaminomethylidene)azanium

> <PUBCHEM_IUPAC_SYSTEMATIC_NAME>
[(4S)-4-azaniumyl-5-azanyl-5-oxidanylidene-pentyl]-[bis(azanyl)methylidene]azanium

> <PUBCHEM_IUPAC_TRADITIONAL_NAME>
[(4S)-5-amino-4-ammonio-5-keto-pentyl]-(diaminomethylene)ammonium

> <PUBCHEM_IUPAC_INCHI>
InChI=1S/C6H15N5O/c7-4(5(8)12)2-1-3-11-6(9)10/h4H,1-3,7H2,(H2,8,12)(H4,9,10,11)/p+2/t4-/m0/s1

> <PUBCHEM_IUPAC_INCHIKEY>
ULEBESPCVWBNIF-BYPYZUCNSA-P

> <PUBCHEM_XLOGP3_AA>
-2.6

> <PUBCHEM_EXACT_MASS>
175.143

> <PUBCHEM_MOLECULAR_FORMULA>
C6H17N5O+2

> <PUBCHEM_MOLECULAR_WEIGHT>
175.236

> <PUBCHEM_OPENEYE_CAN_SMILES>
C(CC(C(=O)N)[NH3+])C[NH+]=C(N)N

> <PUBCHEM_OPENEYE_ISO_SMILES>
C(C[C@@H](C(=O)N)[NH3+])C[NH+]=C(N)N

> <PUBCHEM_CACTVS_TPSA>
137

> <PUBCHEM_MONOISOTOPIC_WEIGHT>
175.143

> <PUBCHEM_TOTAL_CHARGE>
2

> <PUBCHEM_HEAVY_ATOM_COUNT>
12

> <PUBCHEM_ATOM_DEF_STEREO_COUNT>
1

> <PUBCHEM_ATOM_UDEF_STEREO_COUNT>
0

> <PUBCHEM_BOND_DEF_STEREO_COUNT>
0

> <PUBCHEM_BOND_UDEF_STEREO_COUNT>
0

> <PUBCHEM_ISOTOPIC_ATOM_COUNT>
0

> <PUBCHEM_COMPONENT_COUNT>
1

> <PUBCHEM_CACTVS_TAUTO_COUNT>
6

> <PUBCHEM_COORDINATE_TYPE>
1
5
255

> <PUBCHEM_BONDANNOTATIONS>
8  2  6

$$$$
