101945297
  -OEChem-12071809302D

190198  0     1  0  0  0  0  0999 V2000
    9.8930    0.9752    0.0000 O   0  0  0  0  0  0  0  0  0  0  0  0
   11.5958   -5.2150    0.0000 O   0  0  0  0  0  0  0  0  0  0  0  0
   10.4891    3.4379    0.0000 O   0  0  0  0  0  0  0  0  0  0  0  0
    9.8638   -5.2150    0.0000 O   0  0  0  0  0  0  0  0  0  0  0  0
   10.1254    5.1314    0.0000 O   0  0  0  0  0  0  0  0  0  0  0  0
   11.5958   -7.2150    0.0000 O   0  0  0  0  0  0  0  0  0  0  0  0
   12.4445    3.8579    0.0000 O   0  0  0  0  0  0  0  0  0  0  0  0
    9.8638   -8.2150    0.0000 O   0  0  0  0  0  0  0  0  0  0  0  0
   13.0585    5.7613    0.0000 O   0  0  0  0  0  0  0  0  0  0  0  0
    8.1317   -7.2150    0.0000 O   0  0  0  0  0  0  0  0  0  0  0  0
   11.7171    7.2448    0.0000 O   0  0  0  0  0  0  0  0  0  0  0  0
    8.7840    6.6148    0.0000 O   0  0  0  0  0  0  0  0  0  0  0  0
   10.7298   -8.7150    0.0000 O   0  0  0  0  0  0  0  0  0  0  0  0
    7.2657   -5.7150    0.0000 O   0  0  0  0  0  0  0  0  0  0  0  0
   13.3279   -8.2150    0.0000 O   0  0  0  0  0  0  0  0  0  0  0  0
   13.3279  -10.2150    0.0000 O   0  0  0  0  0  0  0  0  0  0  0  0
    7.1356    7.1465    0.0000 O   0  0  0  0  0  0  0  0  0  0  0  0
   11.5958  -11.2150    0.0000 O   0  0  0  0  0  0  0  0  0  0  0  0
    8.9977   -9.7150    0.0000 O   0  0  0  0  0  0  0  0  0  0  0  0
    9.3980    8.5182    0.0000 O   0  0  0  0  0  0  0  0  0  0  0  0
    8.0566   10.0017    0.0000 O   0  0  0  0  0  0  0  0  0  0  0  0
    6.1011    9.5817    0.0000 O   0  0  0  0  0  0  0  0  0  0  0  0
    5.1802    6.7266    0.0000 O   0  0  0  0  0  0  0  0  0  0  0  0
    4.8164    8.4200    0.0000 O   0  0  0  0  0  0  0  0  0  0  0  0
    4.7597   11.0651    0.0000 O   0  0  0  0  0  0  0  0  0  0  0  0
    2.8043   10.6452    0.0000 O   0  0  0  0  0  0  0  0  0  0  0  0
    2.1903    8.7417    0.0000 O   0  0  0  0  0  0  0  0  0  0  0  0
    4.2025    6.5166    0.0000 O   0  0  0  0  0  0  0  0  0  0  0  0
   12.4969   -0.5148    0.0000 C   0  0  1  0  0  0  0  0  0  0  0  0
   12.4930    0.4852    0.0000 C   0  0  1  0  0  0  0  0  0  0  0  0
   11.6328   -1.0181    0.0000 C   0  0  1  0  0  0  0  0  0  0  0  0
   11.6207   -2.0597    0.0000 C   0  0  2  0  0  0  0  0  0  0  0  0
   11.6251    0.9819    0.0000 C   0  0  1  0  0  0  0  0  0  0  0  0
   12.5208   -2.5840    0.0000 C   0  0  1  0  0  0  0  0  0  0  0  0
   13.4088   -1.0181    0.0000 C   0  0  0  0  0  0  0  0  0  0  0  0
   11.8305    1.9545    0.0000 C   0  0  2  0  0  0  0  0  0  0  0  0
   10.7648   -0.5215    0.0000 C   0  0  0  0  0  0  0  0  0  0  0  0
   10.7610    0.4785    0.0000 C   0  0  1  0  0  0  0  0  0  0  0  0
   13.2275    1.1551    0.0000 C   0  0  0  0  0  0  0  0  0  0  0  0
   13.4209   -2.0597    0.0000 C   0  0  0  0  0  0  0  0  0  0  0  0
   12.5333   -3.6689    0.0000 C   0  0  0  0  0  0  0  0  0  0  0  0
   12.8188    2.0614    0.0000 C   0  0  0  0  0  0  0  0  0  0  0  0
   10.6708   -2.5840    0.0000 C   0  0  0  0  0  0  0  0  0  0  0  0
   13.4810   -0.3373    0.0000 C   0  0  0  0  0  0  0  0  0  0  0  0
   13.4785    0.3154    0.0000 C   0  0  0  0  0  0  0  0  0  0  0  0
   10.7566   -1.5563    0.0000 C   0  0  0  0  0  0  0  0  0  0  0  0
   11.5958   -4.2150    0.0000 C   0  0  2  0  0  0  0  0  0  0  0  0
   11.1598    2.6962    0.0000 C   0  0  2  0  0  0  0  0  0  0  0  0
   10.6583   -3.6689    0.0000 C   0  0  0  0  0  0  0  0  0  0  0  0
   13.5333   -3.6612    0.0000 C   0  0  0  0  0  0  0  0  0  0  0  0
   13.0400   -4.5310    0.0000 C   0  0  0  0  0  0  0  0  0  0  0  0
   11.9015    3.3669    0.0000 C   0  0  0  0  0  0  0  0  0  0  0  0
   10.4181    2.0255    0.0000 C   0  0  0  0  0  0  0  0  0  0  0  0
   12.8532    3.0599    0.0000 C   0  0  0  0  0  0  0  0  0  0  0  0
   10.7298   -5.7150    0.0000 C   0  0  2  0  0  0  0  0  0  0  0  0
   10.7961    4.3896    0.0000 C   0  0  2  0  0  0  0  0  0  0  0  0
   10.7298   -6.7150    0.0000 C   0  0  1  0  0  0  0  0  0  0  0  0
   11.7738    4.5996    0.0000 C   0  0  1  0  0  0  0  0  0  0  0  0
   13.5950    3.7306    0.0000 C   0  0  0  0  0  0  0  0  0  0  0  0
    9.8638   -7.2150    0.0000 C   0  0  2  0  0  0  0  0  0  0  0  0
   12.0808    5.5513    0.0000 C   0  0  2  0  0  0  0  0  0  0  0  0
    8.9977   -5.7150    0.0000 C   0  0  1  0  0  0  0  0  0  0  0  0
   10.4324    6.0831    0.0000 C   0  0  1  0  0  0  0  0  0  0  0  0
    8.9977   -6.7150    0.0000 C   0  0  1  0  0  0  0  0  0  0  0  0
   11.4101    6.2931    0.0000 C   0  0  1  0  0  0  0  0  0  0  0  0
   14.5467    3.4236    0.0000 C   0  0  0  0  0  0  0  0  0  0  0  0
    8.1317   -5.2150    0.0000 C   0  0  0  0  0  0  0  0  0  0  0  0
    9.7617    6.8248    0.0000 C   0  0  0  0  0  0  0  0  0  0  0  0
   11.5958   -8.2150    0.0000 C   0  0  2  0  0  0  0  0  0  0  0  0
   15.2884    4.0943    0.0000 C   0  0  0  0  0  0  0  0  0  0  0  0
   14.7567    2.4459    0.0000 C   0  0  0  0  0  0  0  0  0  0  0  0
   12.4618   -8.7150    0.0000 C   0  0  1  0  0  0  0  0  0  0  0  0
   12.4618   -9.7150    0.0000 C   0  0  2  0  0  0  0  0  0  0  0  0
   10.7298   -9.7150    0.0000 C   0  0  1  0  0  0  0  0  0  0  0  0
   11.5958  -10.2150    0.0000 C   0  0  1  0  0  0  0  0  0  0  0  0
    8.1133    7.3565    0.0000 C   0  0  2  0  0  0  0  0  0  0  0  0
    9.8638  -10.2150    0.0000 C   0  0  0  0  0  0  0  0  0  0  0  0
    8.4203    8.3082    0.0000 C   0  0  1  0  0  0  0  0  0  0  0  0
    7.7496    9.0500    0.0000 C   0  0  2  0  0  0  0  0  0  0  0  0
    6.4649    7.8883    0.0000 C   0  0  1  0  0  0  0  0  0  0  0  0
    6.7719    8.8400    0.0000 C   0  0  1  0  0  0  0  0  0  0  0  0
    5.4872    7.6783    0.0000 C   0  0  0  0  0  0  0  0  0  0  0  0
    5.1234    9.3717    0.0000 C   0  0  1  0  0  0  0  0  0  0  0  0
    4.4527   10.1134    0.0000 C   0  0  1  0  0  0  0  0  0  0  0  0
    3.4750    9.9034    0.0000 C   0  0  2  0  0  0  0  0  0  0  0  0
    3.8388    8.2100    0.0000 C   0  0  1  0  0  0  0  0  0  0  0  0
    3.1680    8.9517    0.0000 C   0  0  1  0  0  0  0  0  0  0  0  0
    3.5318    7.2583    0.0000 C   0  0  0  0  0  0  0  0  0  0  0  0
   12.3673   -1.4460    0.0000 H   0  0  0  0  0  0  0  0  0  0  0  0
   10.9361    1.4797    0.0000 H   0  0  0  0  0  0  0  0  0  0  0  0
   13.2602   -3.0033    0.0000 H   0  0  0  0  0  0  0  0  0  0  0  0
   14.0209   -1.1171    0.0000 H   0  0  0  0  0  0  0  0  0  0  0  0
   13.6111   -0.4320    0.0000 H   0  0  0  0  0  0  0  0  0  0  0  0
   12.1331    2.7488    0.0000 H   0  0  0  0  0  0  0  0  0  0  0  0
   10.1538   -0.4162    0.0000 H   0  0  0  0  0  0  0  0  0  0  0  0
   10.5550   -1.1049    0.0000 H   0  0  0  0  0  0  0  0  0  0  0  0
   10.7586    1.0985    0.0000 H   0  0  0  0  0  0  0  0  0  0  0  0
   13.5948    0.6557    0.0000 H   0  0  0  0  0  0  0  0  0  0  0  0
   13.7627    1.4680    0.0000 H   0  0  0  0  0  0  0  0  0  0  0  0
   13.6367   -2.6409    0.0000 H   0  0  0  0  0  0  0  0  0  0  0  0
   14.0304   -1.9465    0.0000 H   0  0  0  0  0  0  0  0  0  0  0  0
   13.4077    2.2554    0.0000 H   0  0  0  0  0  0  0  0  0  0  0  0
   12.6878    2.6673    0.0000 H   0  0  0  0  0  0  0  0  0  0  0  0
   10.4685   -1.9979    0.0000 H   0  0  0  0  0  0  0  0  0  0  0  0
   10.0588   -2.6830    0.0000 H   0  0  0  0  0  0  0  0  0  0  0  0
   13.5910   -0.9475    0.0000 H   0  0  0  0  0  0  0  0  0  0  0  0
   14.0912   -0.2273    0.0000 H   0  0  0  0  0  0  0  0  0  0  0  0
   13.3710    0.2728    0.0000 H   0  0  0  0  0  0  0  0  0  0  0  0
   13.3732   -0.2956    0.0000 H   0  0  0  0  0  0  0  0  0  0  0  0
   14.0895    0.2101    0.0000 H   0  0  0  0  0  0  0  0  0  0  0  0
   13.5838    0.9264    0.0000 H   0  0  0  0  0  0  0  0  0  0  0  0
   11.0687   -1.0206    0.0000 H   0  0  0  0  0  0  0  0  0  0  0  0
   10.2209   -1.2443    0.0000 H   0  0  0  0  0  0  0  0  0  0  0  0
   10.4446   -2.0921    0.0000 H   0  0  0  0  0  0  0  0  0  0  0  0
   11.0583   -4.5240    0.0000 H   0  0  0  0  0  0  0  0  0  0  0  0
   10.0487   -3.5557    0.0000 H   0  0  0  0  0  0  0  0  0  0  0  0
   10.4425   -4.2501    0.0000 H   0  0  0  0  0  0  0  0  0  0  0  0
   13.5381   -4.2812    0.0000 H   0  0  0  0  0  0  0  0  0  0  0  0
   14.1533   -3.6564    0.0000 H   0  0  0  0  0  0  0  0  0  0  0  0
   13.5285   -3.0412    0.0000 H   0  0  0  0  0  0  0  0  0  0  0  0
   12.5055   -4.8452    0.0000 H   0  0  0  0  0  0  0  0  0  0  0  0
   13.3541   -5.0656    0.0000 H   0  0  0  0  0  0  0  0  0  0  0  0
   13.5745   -4.2169    0.0000 H   0  0  0  0  0  0  0  0  0  0  0  0
    9.3573    0.6631    0.0000 H   0  0  0  0  0  0  0  0  0  0  0  0
   12.1914    3.9150    0.0000 H   0  0  0  0  0  0  0  0  0  0  0  0
   11.4122    3.7476    0.0000 H   0  0  0  0  0  0  0  0  0  0  0  0
   10.0023    2.4854    0.0000 H   0  0  0  0  0  0  0  0  0  0  0  0
    9.9582    1.6097    0.0000 H   0  0  0  0  0  0  0  0  0  0  0  0
   10.8339    1.5656    0.0000 H   0  0  0  0  0  0  0  0  0  0  0  0
   12.5633    2.5119    0.0000 H   0  0  0  0  0  0  0  0  0  0  0  0
   13.3426    2.6792    0.0000 H   0  0  0  0  0  0  0  0  0  0  0  0
   11.2667   -6.0250    0.0000 H   0  0  0  0  0  0  0  0  0  0  0  0
   10.1899    4.2594    0.0000 H   0  0  0  0  0  0  0  0  0  0  0  0
   10.7298   -7.3350    0.0000 H   0  0  0  0  0  0  0  0  0  0  0  0
   11.5835    4.0096    0.0000 H   0  0  0  0  0  0  0  0  0  0  0  0
   13.4648    4.3368    0.0000 H   0  0  0  0  0  0  0  0  0  0  0  0
    9.3268   -7.5250    0.0000 H   0  0  0  0  0  0  0  0  0  0  0  0
   12.4966    5.0915    0.0000 H   0  0  0  0  0  0  0  0  0  0  0  0
    8.9977   -5.0950    0.0000 H   0  0  0  0  0  0  0  0  0  0  0  0
    9.8262    5.9529    0.0000 H   0  0  0  0  0  0  0  0  0  0  0  0
    8.4608   -6.4050    0.0000 H   0  0  0  0  0  0  0  0  0  0  0  0
   10.9943    6.7529    0.0000 H   0  0  0  0  0  0  0  0  0  0  0  0
   13.0507    3.9881    0.0000 H   0  0  0  0  0  0  0  0  0  0  0  0
    8.5302   -4.7401    0.0000 H   0  0  0  0  0  0  0  0  0  0  0  0
    7.7332   -4.7401    0.0000 H   0  0  0  0  0  0  0  0  0  0  0  0
   10.2868    7.1545    0.0000 H   0  0  0  0  0  0  0  0  0  0  0  0
    9.5282    7.3992    0.0000 H   0  0  0  0  0  0  0  0  0  0  0  0
   11.0589   -7.9050    0.0000 H   0  0  0  0  0  0  0  0  0  0  0  0
    9.3268   -8.5250    0.0000 H   0  0  0  0  0  0  0  0  0  0  0  0
   13.2488    6.3514    0.0000 H   0  0  0  0  0  0  0  0  0  0  0  0
   15.7042    3.6345    0.0000 H   0  0  0  0  0  0  0  0  0  0  0  0
   14.1505    2.3157    0.0000 H   0  0  0  0  0  0  0  0  0  0  0  0
   14.8869    1.8398    0.0000 H   0  0  0  0  0  0  0  0  0  0  0  0
   15.3628    2.5761    0.0000 H   0  0  0  0  0  0  0  0  0  0  0  0
   15.7483    4.5102    0.0000 H   0  0  0  0  0  0  0  0  0  0  0  0
   14.8726    4.5542    0.0000 H   0  0  0  0  0  0  0  0  0  0  0  0
    8.1317   -7.8350    0.0000 H   0  0  0  0  0  0  0  0  0  0  0  0
   11.3013    7.7046    0.0000 H   0  0  0  0  0  0  0  0  0  0  0  0
   12.9988   -9.0250    0.0000 H   0  0  0  0  0  0  0  0  0  0  0  0
    6.7288   -5.4050    0.0000 H   0  0  0  0  0  0  0  0  0  0  0  0
   12.4618  -10.3350    0.0000 H   0  0  0  0  0  0  0  0  0  0  0  0
   10.1928   -9.4050    0.0000 H   0  0  0  0  0  0  0  0  0  0  0  0
   11.0589  -10.5250    0.0000 H   0  0  0  0  0  0  0  0  0  0  0  0
    7.9229    6.7665    0.0000 H   0  0  0  0  0  0  0  0  0  0  0  0
   13.3279   -7.5950    0.0000 H   0  0  0  0  0  0  0  0  0  0  0  0
    9.4652  -10.6900    0.0000 H   0  0  0  0  0  0  0  0  0  0  0  0
   10.2623  -10.6900    0.0000 H   0  0  0  0  0  0  0  0  0  0  0  0
    8.8361    7.8484    0.0000 H   0  0  0  0  0  0  0  0  0  0  0  0
   13.3279  -10.8350    0.0000 H   0  0  0  0  0  0  0  0  0  0  0  0
   11.0589  -11.5250    0.0000 H   0  0  0  0  0  0  0  0  0  0  0  0
    8.3557    9.1802    0.0000 H   0  0  0  0  0  0  0  0  0  0  0  0
    6.2745    7.2982    0.0000 H   0  0  0  0  0  0  0  0  0  0  0  0
    6.1657    8.7098    0.0000 H   0  0  0  0  0  0  0  0  0  0  0  0
    8.4608  -10.0250    0.0000 H   0  0  0  0  0  0  0  0  0  0  0  0
    9.5883    9.1083    0.0000 H   0  0  0  0  0  0  0  0  0  0  0  0
    5.4642    8.2978    0.0000 H   0  0  0  0  0  0  0  0  0  0  0  0
    4.8730    7.7632    0.0000 H   0  0  0  0  0  0  0  0  0  0  0  0
    7.6407   10.4615    0.0000 H   0  0  0  0  0  0  0  0  0  0  0  0
    5.3138    9.9618    0.0000 H   0  0  0  0  0  0  0  0  0  0  0  0
    5.5960    6.2667    0.0000 H   0  0  0  0  0  0  0  0  0  0  0  0
    4.0369   10.5733    0.0000 H   0  0  0  0  0  0  0  0  0  0  0  0
    2.8689    9.7732    0.0000 H   0  0  0  0  0  0  0  0  0  0  0  0
    4.2546    7.7501    0.0000 H   0  0  0  0  0  0  0  0  0  0  0  0
    4.0368    8.4919    0.0000 H   0  0  0  0  0  0  0  0  0  0  0  0
    4.3439   11.5250    0.0000 H   0  0  0  0  0  0  0  0  0  0  0  0
    2.9837    7.5482    0.0000 H   0  0  0  0  0  0  0  0  0  0  0  0
    3.1511    6.7689    0.0000 H   0  0  0  0  0  0  0  0  0  0  0  0
    2.1982   10.5150    0.0000 H   0  0  0  0  0  0  0  0  0  0  0  0
    2.0000    8.1517    0.0000 H   0  0  0  0  0  0  0  0  0  0  0  0
    4.0121    5.9265    0.0000 H   0  0  0  0  0  0  0  0  0  0  0  0
 38  1  1  1  0  0  0
  1124  1  0  0  0  0
 47  2  1  1  0  0  0
 55  2  1  1  0  0  0
 48  3  1  1  0  0  0
 56  3  1  6  0  0  0
  4 55  1  0  0  0  0
  4 62  1  0  0  0  0
  5 56  1  0  0  0  0
  5 63  1  0  0  0  0
 57  6  1  6  0  0  0
 69  6  1  1  0  0  0
 58  7  1  1  0  0  0
  7143  1  0  0  0  0
 60  8  1  1  0  0  0
  8149  1  0  0  0  0
 61  9  1  6  0  0  0
  9150  1  0  0  0  0
 64 10  1  6  0  0  0
 10157  1  0  0  0  0
 65 11  1  1  0  0  0
 11158  1  0  0  0  0
 12 68  1  0  0  0  0
 76 12  1  6  0  0  0
 13 69  1  0  0  0  0
 13 74  1  0  0  0  0
 14 67  1  0  0  0  0
 14160  1  0  0  0  0
 72 15  1  6  0  0  0
 15165  1  0  0  0  0
 73 16  1  1  0  0  0
 16169  1  0  0  0  0
 17 76  1  0  0  0  0
 17 80  1  0  0  0  0
 75 18  1  6  0  0  0
 18170  1  0  0  0  0
 19 77  1  0  0  0  0
 19174  1  0  0  0  0
 78 20  1  1  0  0  0
 20175  1  0  0  0  0
 79 21  1  6  0  0  0
 21178  1  0  0  0  0
 81 22  1  1  0  0  0
 83 22  1  1  0  0  0
 23 82  1  0  0  0  0
 23180  1  0  0  0  0
 24 83  1  0  0  0  0
 24 86  1  0  0  0  0
 84 25  1  1  0  0  0
 25185  1  0  0  0  0
 85 26  1  6  0  0  0
 26188  1  0  0  0  0
 87 27  1  1  0  0  0
 27189  1  0  0  0  0
 28 88  1  0  0  0  0
 28190  1  0  0  0  0
 29 30  1  0  0  0  0
 29 31  1  0  0  0  0
 29 35  1  0  0  0  0
 29 44  1  1  0  0  0
 30 33  1  0  0  0  0
 30 39  1  0  0  0  0
 30 45  1  6  0  0  0
 31 32  1  0  0  0  0
 31 37  1  0  0  0  0
 31 89  1  6  0  0  0
 32 34  1  0  0  0  0
 32 43  1  0  0  0  0
 32 46  1  1  0  0  0
 33 36  1  0  0  0  0
 33 38  1  0  0  0  0
 33 90  1  1  0  0  0
 34 40  1  0  0  0  0
 34 41  1  0  0  0  0
 34 91  1  6  0  0  0
 35 40  1  0  0  0  0
 35 92  1  0  0  0  0
 35 93  1  0  0  0  0
 36 42  1  0  0  0  0
 36 48  1  0  0  0  0
 36 94  1  6  0  0  0
 37 38  1  0  0  0  0
 37 95  1  0  0  0  0
 37 96  1  0  0  0  0
 38 97  1  0  0  0  0
 39 42  1  0  0  0  0
 39 98  1  0  0  0  0
 39 99  1  0  0  0  0
 40100  1  0  0  0  0
 40101  1  0  0  0  0
 41 47  1  0  0  0  0
 41 50  1  0  0  0  0
 41 51  1  0  0  0  0
 42102  1  0  0  0  0
 42103  1  0  0  0  0
 43 49  1  0  0  0  0
 43104  1  0  0  0  0
 43105  1  0  0  0  0
 44106  1  0  0  0  0
 44107  1  0  0  0  0
 44108  1  0  0  0  0
 45109  1  0  0  0  0
 45110  1  0  0  0  0
 45111  1  0  0  0  0
 46112  1  0  0  0  0
 46113  1  0  0  0  0
 46114  1  0  0  0  0
 47 49  1  0  0  0  0
 47115  1  0  0  0  0
 48 52  1  0  0  0  0
 48 53  1  0  0  0  0
 49116  1  0  0  0  0
 49117  1  0  0  0  0
 50118  1  0  0  0  0
 50119  1  0  0  0  0
 50120  1  0  0  0  0
 51121  1  0  0  0  0
 51122  1  0  0  0  0
 51123  1  0  0  0  0
 52 54  1  0  0  0  0
 52125  1  0  0  0  0
 52126  1  0  0  0  0
 53127  1  0  0  0  0
 53128  1  0  0  0  0
 53129  1  0  0  0  0
 54 59  1  0  0  0  0
 54130  1  0  0  0  0
 54131  1  0  0  0  0
 55 57  1  0  0  0  0
 55132  1  0  0  0  0
 56 58  1  0  0  0  0
 56133  1  0  0  0  0
 57 60  1  0  0  0  0
 57134  1  0  0  0  0
 58 61  1  0  0  0  0
 58135  1  0  0  0  0
 59 66  2  0  0  0  0
 59136  1  0  0  0  0
 60 64  1  0  0  0  0
 60137  1  0  0  0  0
 61 65  1  0  0  0  0
 61138  1  0  0  0  0
 62 64  1  0  0  0  0
 62 67  1  1  0  0  0
 62139  1  0  0  0  0
 63 65  1  0  0  0  0
 63 68  1  6  0  0  0
 63140  1  0  0  0  0
 64141  1  0  0  0  0
 65142  1  0  0  0  0
 66 70  1  0  0  0  0
 66 71  1  0  0  0  0
 67144  1  0  0  0  0
 67145  1  0  0  0  0
 68146  1  0  0  0  0
 68147  1  0  0  0  0
 69 72  1  0  0  0  0
 69148  1  0  0  0  0
 70151  1  0  0  0  0
 70155  1  0  0  0  0
 70156  1  0  0  0  0
 71152  1  0  0  0  0
 71153  1  0  0  0  0
 71154  1  0  0  0  0
 72 73  1  0  0  0  0
 72159  1  0  0  0  0
 73 75  1  0  0  0  0
 73161  1  0  0  0  0
 74 75  1  0  0  0  0
 74 77  1  1  0  0  0
 74162  1  0  0  0  0
 75163  1  0  0  0  0
 76 78  1  0  0  0  0
 76164  1  0  0  0  0
 77166  1  0  0  0  0
 77167  1  0  0  0  0
 78 79  1  0  0  0  0
 78168  1  0  0  0  0
 79 81  1  0  0  0  0
 79171  1  0  0  0  0
 80 81  1  0  0  0  0
 80 82  1  6  0  0  0
 80172  1  0  0  0  0
 81173  1  0  0  0  0
 82176  1  0  0  0  0
 82177  1  0  0  0  0
 83 84  1  0  0  0  0
 83179  1  0  0  0  0
 84 85  1  0  0  0  0
 84181  1  0  0  0  0
 85 87  1  0  0  0  0
 85182  1  0  0  0  0
 86 87  1  0  0  0  0
 86 88  1  6  0  0  0
 86183  1  0  0  0  0
 87184  1  0  0  0  0
 88186  1  0  0  0  0
 88187  1  0  0  0  0
M  END
> <PUBCHEM_COMPOUND_CID>
101945297

> <PUBCHEM_COMPOUND_CANONICALIZED>
1

> <PUBCHEM_CACTVS_COMPLEXITY>
2320

> <PUBCHEM_CACTVS_HBOND_ACCEPTOR>
28

> <PUBCHEM_CACTVS_HBOND_DONOR>
18

> <PUBCHEM_CACTVS_ROTATABLE_BOND>
19

> <PUBCHEM_CACTVS_SUBSKEYS>
AAADcfB8PgAAAAAAAAAAAAAAAAAAAYAAAAA0aNEiQAAAAGDAAAAAGgAACAAAD1SwgAMCCAAABgCAAiBCAAAAAAAgAAAACAAAAAgREAIAAQAiQAAFgAAPAAPA4PwPgAAAAAAAAADAAAYAADAAAQAACAAAAA==

> <PUBCHEM_IUPAC_OPENEYE_NAME>
(2R,3R,4S,5S,6R)-2-[(2R,3S,4R,5R,6R)-6-[[(2R,3S,4S,5R,6S)-6-[(1S)-1-[(3S,5R,8R,9R,10R,12R,13R,14R,17S)-3-[(2R,3R,4S,5S,6R)-4,5-dihydroxy-6-(hydroxymethyl)-3-[(2S,3R,4S,5S,6R)-3,4,5-trihydroxy-6-(hydroxymethyl)tetrahydropyran-2-yl]oxy-tetrahydropyran-2-yl]oxy-12-hydroxy-4,4,8,10,14-pentamethyl-2,3,5,6,7,9,11,12,13,15,16,17-dodecahydro-1H-cyclopenta[a]phenanthren-17-yl]-1,5-dimethyl-hex-4-enoxy]-3,4,5-trihydroxy-tetrahydropyran-2-yl]methoxy]-4,5-dihydroxy-2-(hydroxymethyl)tetrahydropyran-3-yl]oxy-6-(hydroxymethyl)tetrahydropyran-3,4,5-triol

> <PUBCHEM_IUPAC_CAS_NAME>
(2R,3R,4S,5S,6R)-2-[[(2R,3S,4R,5R,6R)-6-[[(2R,3S,4S,5R,6S)-6-[(2S)-2-[(3S,5R,8R,9R,10R,12R,13R,14R,17S)-3-[[(2R,3R,4S,5S,6R)-4,5-dihydroxy-6-(hydroxymethyl)-3-[[(2S,3R,4S,5S,6R)-3,4,5-trihydroxy-6-(hydroxymethyl)-2-oxanyl]oxy]-2-oxanyl]oxy]-12-hydroxy-4,4,8,10,14-pentamethyl-2,3,5,6,7,9,11,12,13,15,16,17-dodecahydro-1H-cyclopenta[a]phenanthren-17-yl]-6-methylhept-5-en-2-yl]oxy-3,4,5-trihydroxy-2-oxanyl]methoxy]-4,5-dihydroxy-2-(hydroxymethyl)-3-oxanyl]oxy]-6-(hydroxymethyl)oxane-3,4,5-triol

> <PUBCHEM_IUPAC_NAME>
(2R,3R,4S,5S,6R)-2-[(2R,3S,4R,5R,6R)-6-[[(2R,3S,4S,5R,6S)-6-[(2S)-2-[(3S,5R,8R,9R,10R,12R,13R,14R,17S)-3-[(2R,3R,4S,5S,6R)-4,5-dihydroxy-6-(hydroxymethyl)-3-[(2S,3R,4S,5S,6R)-3,4,5-trihydroxy-6-(hydroxymethyl)oxan-2-yl]oxyoxan-2-yl]oxy-12-hydroxy-4,4,8,10,14-pentamethyl-2,3,5,6,7,9,11,12,13,15,16,17-dodecahydro-1H-cyclopenta[a]phenanthren-17-yl]-6-methylhept-5-en-2-yl]oxy-3,4,5-trihydroxyoxan-2-yl]methoxy]-4,5-dihydroxy-2-(hydroxymethyl)oxan-3-yl]oxy-6-(hydroxymethyl)oxane-3,4,5-triol

> <PUBCHEM_IUPAC_SYSTEMATIC_NAME>
(2R,3S,4S,5R,6R)-2-(hydroxymethyl)-6-[(2R,3S,4R,5R,6R)-2-(hydroxymethyl)-6-[[(2R,3S,4S,5R,6S)-6-[(2S)-2-[(3S,5R,8R,9R,10R,12R,13R,14R,17S)-3-[(2R,3R,4S,5S,6R)-6-(hydroxymethyl)-3-[(2S,3R,4S,5S,6R)-6-(hydroxymethyl)-3,4,5-tris(oxidanyl)oxan-2-yl]oxy-4,5-bis(oxidanyl)oxan-2-yl]oxy-4,4,8,10,14-pentamethyl-12-oxidanyl-2,3,5,6,7,9,11,12,13,15,16,17-dodecahydro-1H-cyclopenta[a]phenanthren-17-yl]-6-methyl-hept-5-en-2-yl]oxy-3,4,5-tris(oxidanyl)oxan-2-yl]methoxy]-4,5-bis(oxidanyl)oxan-3-yl]oxy-oxane-3,4,5-triol

> <PUBCHEM_IUPAC_TRADITIONAL_NAME>
(2R,3R,4S,5S,6R)-2-[(2R,3S,4R,5R,6R)-6-[[(2R,3S,4S,5R,6S)-6-[(1S)-1-[(3S,5R,8R,9R,10R,12R,13R,14R,17S)-3-[(2R,3R,4S,5S,6R)-4,5-dihydroxy-6-methylol-3-[(2S,3R,4S,5S,6R)-3,4,5-trihydroxy-6-methylol-tetrahydropyran-2-yl]oxy-tetrahydropyran-2-yl]oxy-12-hydroxy-4,4,8,10,14-pentamethyl-2,3,5,6,7,9,11,12,13,15,16,17-dodecahydro-1H-cyclopenta[a]phenanthren-17-yl]-1,5-dimethyl-hex-4-enoxy]-3,4,5-trihydroxy-tetrahydropyran-2-yl]methoxy]-4,5-dihydroxy-2-methylol-tetrahydropyran-3-yl]oxy-6-methylol-tetrahydropyran-3,4,5-triol

> <PUBCHEM_IUPAC_INCHI>
InChI=1S/C60H102O28/c1-24(2)10-9-14-60(8,88-54-47(77)42(72)39(69)31(84-54)23-79-51-48(78)44(74)49(30(22-64)83-51)86-52-45(75)40(70)36(66)27(19-61)80-52)25-11-16-59(7)35(25)26(65)18-33-57(5)15-13-34(56(3,4)32(57)12-17-58(33,59)6)85-55-50(43(73)38(68)29(21-63)82-55)87-53-46(76)41(71)37(67)28(20-62)81-53/h10,25-55,61-78H,9,11-23H2,1-8H3/t25-,26+,27+,28+,29+,30+,31+,32-,33+,34-,35-,36+,37+,38+,39+,40-,41-,42-,43-,44+,45+,46+,47+,48+,49+,50+,51+,52+,53-,54-,55-,57-,58+,59+,60-/m0/s1

> <PUBCHEM_IUPAC_INCHIKEY>
VDBDEBBSMOPOQM-JKQFXBOZSA-N

> <PUBCHEM_XLOGP3_AA>
-1.9

> <PUBCHEM_EXACT_MASS>
1270.656

> <PUBCHEM_MOLECULAR_FORMULA>
C60H102O28

> <PUBCHEM_MOLECULAR_WEIGHT>
1271.448

> <PUBCHEM_OPENEYE_CAN_SMILES>
CC(=CCCC(C)(C1CCC2(C1C(CC3C2(CCC4C3(CCC(C4(C)C)OC5C(C(C(C(O5)CO)O)O)OC6C(C(C(C(O6)CO)O)O)O)C)C)O)C)OC7C(C(C(C(O7)COC8C(C(C(C(O8)CO)OC9C(C(C(C(O9)CO)O)O)O)O)O)O)O)O)C

> <PUBCHEM_OPENEYE_ISO_SMILES>
CC(=CCC[C@@](C)([C@H]1CC[C@@]2([C@@H]1[C@@H](C[C@H]3[C@]2(CC[C@@H]4[C@@]3(CC[C@@H](C4(C)C)O[C@H]5[C@@H]([C@H]([C@@H]([C@H](O5)CO)O)O)O[C@H]6[C@@H]([C@H]([C@@H]([C@H](O6)CO)O)O)O)C)C)O)C)O[C@H]7[C@@H]([C@H]([C@@H]([C@H](O7)CO[C@H]8[C@@H]([C@H]([C@@H]([C@H](O8)CO)O[C@@H]9[C@@H]([C@H]([C@@H]([C@H](O9)CO)O)O)O)O)O)O)O)O)C

> <PUBCHEM_CACTVS_TPSA>
456

> <PUBCHEM_MONOISOTOPIC_WEIGHT>
1270.656

> <PUBCHEM_TOTAL_CHARGE>
0

> <PUBCHEM_HEAVY_ATOM_COUNT>
88

> <PUBCHEM_ATOM_DEF_STEREO_COUNT>
35

> <PUBCHEM_ATOM_UDEF_STEREO_COUNT>
0

> <PUBCHEM_BOND_DEF_STEREO_COUNT>
0

> <PUBCHEM_BOND_UDEF_STEREO_COUNT>
0

> <PUBCHEM_ISOTOPIC_ATOM_COUNT>
0

> <PUBCHEM_COMPONENT_COUNT>
1

> <PUBCHEM_CACTVS_TAUTO_COUNT>
1

> <PUBCHEM_COORDINATE_TYPE>
1
5
255

> <PUBCHEM_BONDANNOTATIONS>
38  1  5
64  10  6
65  11  5
76  12  6
72  15  6
73  16  5
75  18  6
47  2  5
55  2  5
78  20  5
79  21  6
81  22  5
83  22  5
84  25  5
85  26  6
87  27  5
29  44  5
48  3  5
56  3  6
30  45  6
31  89  6
32  46  5
33  90  5
34  91  6
36  94  6
57  6  6
69  6  5
62  67  5
63  68  6
58  7  5
74  77  5
60  8  5
80  82  6
86  88  6
61  9  6

$$$$
