44543716
  -OEChem-12071809172D

 96 99  0     1  0  0  0  0  0999 V2000
   10.4298    1.9661    0.0000 O   0  0  0  0  0  0  0  0  0  0  0  0
    4.0831   -2.5538    0.0000 O   0  0  0  0  0  0  0  0  0  0  0  0
    7.2305    2.8360    0.0000 O   0  0  0  0  0  0  0  0  0  0  0  0
    9.5203   -2.2260    0.0000 O   0  0  0  0  0  0  0  0  0  0  0  0
    8.0077   -0.8980    0.0000 O   0  0  0  0  0  0  0  0  0  0  0  0
    3.9318    5.1427    0.0000 O   0  0  0  0  0  0  0  0  0  0  0  0
    9.7559    2.2273    0.0000 N   0  0  0  0  0  0  0  0  0  0  0  0
    9.0720   -0.5530    0.0000 N   0  0  0  0  0  0  0  0  0  0  0  0
    5.0154   -2.9154    0.0000 N   0  0  3  0  0  0  0  0  0  0  0  0
    7.7650    1.2614    0.0000 N   0  0  0  0  0  0  0  0  0  0  0  0
    7.1402   -1.0706    0.0000 N   0  0  0  0  0  0  0  0  0  0  0  0
    8.8898    2.7273    0.0000 C   0  0  2  0  0  0  0  0  0  0  0  0
    8.8738    3.7688    0.0000 C   0  0  0  0  0  0  0  0  0  0  0  0
   10.6659    2.7341    0.0000 C   0  0  0  0  0  0  0  0  0  0  0  0
    9.7791    0.1541    0.0000 C   0  0  2  0  0  0  0  0  0  0  0  0
    9.7718    4.2965    0.0000 C   0  0  0  0  0  0  0  0  0  0  0  0
   10.6739    3.7757    0.0000 C   0  0  0  0  0  0  0  0  0  0  0  0
    6.2671   -3.9308    0.0000 C   0  0  3  0  0  0  0  0  0  0  0  0
    5.2685   -3.8768    0.0000 C   0  0  3  0  0  0  0  0  0  0  0  0
    9.7559    1.2273    0.0000 C   0  0  0  0  0  0  0  0  0  0  0  0
   10.6731   -0.2939    0.0000 C   0  0  2  0  0  0  0  0  0  0  0  0
    6.6225   -3.0024    0.0000 C   0  0  0  0  0  0  0  0  0  0  0  0
    7.8473   -1.7777    0.0000 C   0  0  1  0  0  0  0  0  0  0  0  0
    7.5884   -2.7436    0.0000 C   0  0  0  0  0  0  0  0  0  0  0  0
    8.0238    2.2273    0.0000 C   0  0  0  0  0  0  0  0  0  0  0  0
    6.8990    0.7614    0.0000 C   0  0  1  0  0  0  0  0  0  0  0  0
    5.8505   -2.3762    0.0000 C   0  0  0  0  0  0  0  0  0  0  0  0
    8.8132   -1.5189    0.0000 C   0  0  0  0  0  0  0  0  0  0  0  0
   11.5082    0.2563    0.0000 C   0  0  0  0  0  0  0  0  0  0  0  0
    6.7195   -4.8226    0.0000 C   0  0  0  0  0  0  0  0  0  0  0  0
    5.9330    1.0202    0.0000 C   0  0  0  0  0  0  0  0  0  0  0  0
    4.7224   -4.7145    0.0000 C   0  0  0  0  0  0  0  0  0  0  0  0
   10.7321   -1.2922    0.0000 C   0  0  0  0  0  0  0  0  0  0  0  0
    7.3990   -0.1047    0.0000 C   0  0  0  0  0  0  0  0  0  0  0  0
    5.6742    1.9861    0.0000 C   0  0  0  0  0  0  0  0  0  0  0  0
    6.1734   -5.6603    0.0000 C   0  0  0  0  0  0  0  0  0  0  0  0
    5.1749   -5.6063    0.0000 C   0  0  0  0  0  0  0  0  0  0  0  0
   12.4022   -0.1917    0.0000 C   0  0  0  0  0  0  0  0  0  0  0  0
    4.7083    2.2449    0.0000 C   0  0  0  0  0  0  0  0  0  0  0  0
    4.4495    3.2108    0.0000 C   0  0  0  0  0  0  0  0  0  0  0  0
    3.3038   -3.1805    0.0000 C   0  0  0  0  0  0  0  0  0  0  0  0
    3.4836    3.4697    0.0000 C   0  0  0  0  0  0  0  0  0  0  0  0
    3.2247    4.4356    0.0000 C   0  0  0  0  0  0  0  0  0  0  0  0
    2.2588    4.6944    0.0000 C   0  0  0  0  0  0  0  0  0  0  0  0
    2.0000    5.6603    0.0000 C   0  0  0  0  0  0  0  0  0  0  0  0
    8.1505    3.1466    0.0000 H   0  0  0  0  0  0  0  0  0  0  0  0
    8.6558    4.3492    0.0000 H   0  0  0  0  0  0  0  0  0  0  0  0
    8.2646    3.6533    0.0000 H   0  0  0  0  0  0  0  0  0  0  0  0
   10.8704    2.1488    0.0000 H   0  0  0  0  0  0  0  0  0  0  0  0
   11.2775    2.8355    0.0000 H   0  0  0  0  0  0  0  0  0  0  0  0
    9.9149   -0.6849    0.0000 H   0  0  0  0  0  0  0  0  0  0  0  0
   10.1691    4.7725    0.0000 H   0  0  0  0  0  0  0  0  0  0  0  0
    9.3709    4.7694    0.0000 H   0  0  0  0  0  0  0  0  0  0  0  0
   11.2839    3.6649    0.0000 H   0  0  0  0  0  0  0  0  0  0  0  0
   10.8875    4.3578    0.0000 H   0  0  0  0  0  0  0  0  0  0  0  0
    6.8862   -3.8986    0.0000 H   0  0  0  0  0  0  0  0  0  0  0  0
    4.6565   -3.7779    0.0000 H   0  0  0  0  0  0  0  0  0  0  0  0
   11.2274   -0.5717    0.0000 H   0  0  0  0  0  0  0  0  0  0  0  0
    7.2484   -1.9382    0.0000 H   0  0  0  0  0  0  0  0  0  0  0  0
    7.6425   -3.3613    0.0000 H   0  0  0  0  0  0  0  0  0  0  0  0
    8.2061   -2.7977    0.0000 H   0  0  0  0  0  0  0  0  0  0  0  0
    6.8180    1.3760    0.0000 H   0  0  0  0  0  0  0  0  0  0  0  0
    8.5351   -0.2430    0.0000 H   0  0  0  0  0  0  0  0  0  0  0  0
    5.8840   -1.7571    0.0000 H   0  0  0  0  0  0  0  0  0  0  0  0
   11.8780    0.7539    0.0000 H   0  0  0  0  0  0  0  0  0  0  0  0
   11.0823    0.7069    0.0000 H   0  0  0  0  0  0  0  0  0  0  0  0
    8.2569    0.8839    0.0000 H   0  0  0  0  0  0  0  0  0  0  0  0
    6.5413   -1.2311    0.0000 H   0  0  0  0  0  0  0  0  0  0  0  0
    7.3386   -4.8561    0.0000 H   0  0  0  0  0  0  0  0  0  0  0  0
    5.3154    0.9661    0.0000 H   0  0  0  0  0  0  0  0  0  0  0  0
    5.8790    0.4025    0.0000 H   0  0  0  0  0  0  0  0  0  0  0  0
    4.1034   -4.6810    0.0000 H   0  0  0  0  0  0  0  0  0  0  0  0
   10.1132   -1.3287    0.0000 H   0  0  0  0  0  0  0  0  0  0  0  0
   10.7687   -1.9111    0.0000 H   0  0  0  0  0  0  0  0  0  0  0  0
   11.3510   -1.2556    0.0000 H   0  0  0  0  0  0  0  0  0  0  0  0
    6.2919    2.0401    0.0000 H   0  0  0  0  0  0  0  0  0  0  0  0
    5.7283    2.6037    0.0000 H   0  0  0  0  0  0  0  0  0  0  0  0
    6.4540   -6.2132    0.0000 H   0  0  0  0  0  0  0  0  0  0  0  0
    4.8363   -6.1257    0.0000 H   0  0  0  0  0  0  0  0  0  0  0  0
   12.1244   -0.7460    0.0000 H   0  0  0  0  0  0  0  0  0  0  0  0
   12.9565   -0.4695    0.0000 H   0  0  0  0  0  0  0  0  0  0  0  0
   12.6800    0.3626    0.0000 H   0  0  0  0  0  0  0  0  0  0  0  0
    4.0907    2.1909    0.0000 H   0  0  0  0  0  0  0  0  0  0  0  0
    4.6543    1.6273    0.0000 H   0  0  0  0  0  0  0  0  0  0  0  0
    5.0671    3.2649    0.0000 H   0  0  0  0  0  0  0  0  0  0  0  0
    4.5035    3.8285    0.0000 H   0  0  0  0  0  0  0  0  0  0  0  0
    2.9152   -2.6973    0.0000 H   0  0  0  0  0  0  0  0  0  0  0  0
    2.8206   -3.5690    0.0000 H   0  0  0  0  0  0  0  0  0  0  0  0
    3.6923   -3.6636    0.0000 H   0  0  0  0  0  0  0  0  0  0  0  0
    2.8659    3.4156    0.0000 H   0  0  0  0  0  0  0  0  0  0  0  0
    3.4295    2.8520    0.0000 H   0  0  0  0  0  0  0  0  0  0  0  0
    1.6412    4.6404    0.0000 H   0  0  0  0  0  0  0  0  0  0  0  0
    2.2048    4.0768    0.0000 H   0  0  0  0  0  0  0  0  0  0  0  0
    2.5989    5.8208    0.0000 H   0  0  0  0  0  0  0  0  0  0  0  0
    1.8395    6.2592    0.0000 H   0  0  0  0  0  0  0  0  0  0  0  0
    1.4011    5.4999    0.0000 H   0  0  0  0  0  0  0  0  0  0  0  0
  1 20  2  0  0  0  0
  2  9  1  0  0  0  0
  2 41  1  0  0  0  0
  3 25  2  0  0  0  0
  4 28  2  0  0  0  0
  5 34  2  0  0  0  0
  6 43  2  0  0  0  0
  7 12  1  0  0  0  0
  7 14  1  0  0  0  0
  7 20  1  0  0  0  0
  8 15  1  0  0  0  0
  8 28  1  0  0  0  0
  8 63  1  0  0  0  0
  9 19  1  0  0  0  0
  9 27  1  0  0  0  0
 10 25  1  0  0  0  0
 10 26  1  0  0  0  0
 10 67  1  0  0  0  0
 11 23  1  0  0  0  0
 11 34  1  0  0  0  0
 11 68  1  0  0  0  0
 12 13  1  0  0  0  0
 12 25  1  0  0  0  0
 12 46  1  6  0  0  0
 13 16  1  0  0  0  0
 13 47  1  0  0  0  0
 13 48  1  0  0  0  0
 14 17  1  0  0  0  0
 14 49  1  0  0  0  0
 14 50  1  0  0  0  0
 15 20  1  0  0  0  0
 15 21  1  0  0  0  0
 15 51  1  1  0  0  0
 16 17  1  0  0  0  0
 16 52  1  0  0  0  0
 16 53  1  0  0  0  0
 17 54  1  0  0  0  0
 17 55  1  0  0  0  0
 18 19  1  0  0  0  0
 18 22  1  0  0  0  0
 18 30  1  0  0  0  0
 18 56  1  0  0  0  0
 19 32  1  0  0  0  0
 19 57  1  0  0  0  0
 21 29  1  0  0  0  0
 21 33  1  6  0  0  0
 21 58  1  0  0  0  0
 22 24  1  0  0  0  0
 22 27  2  0  0  0  0
 23 24  1  6  0  0  0
 23 28  1  0  0  0  0
 23 59  1  0  0  0  0
 24 60  1  0  0  0  0
 24 61  1  0  0  0  0
 26 31  1  6  0  0  0
 26 34  1  0  0  0  0
 26 62  1  0  0  0  0
 27 64  1  0  0  0  0
 29 38  1  0  0  0  0
 29 65  1  0  0  0  0
 29 66  1  0  0  0  0
 30 36  2  0  0  0  0
 30 69  1  0  0  0  0
 31 35  1  0  0  0  0
 31 70  1  0  0  0  0
 31 71  1  0  0  0  0
 32 37  2  0  0  0  0
 32 72  1  0  0  0  0
 33 73  1  0  0  0  0
 33 74  1  0  0  0  0
 33 75  1  0  0  0  0
 35 39  1  0  0  0  0
 35 76  1  0  0  0  0
 35 77  1  0  0  0  0
 36 37  1  0  0  0  0
 36 78  1  0  0  0  0
 37 79  1  0  0  0  0
 38 80  1  0  0  0  0
 38 81  1  0  0  0  0
 38 82  1  0  0  0  0
 39 40  1  0  0  0  0
 39 83  1  0  0  0  0
 39 84  1  0  0  0  0
 40 42  1  0  0  0  0
 40 85  1  0  0  0  0
 40 86  1  0  0  0  0
 41 87  1  0  0  0  0
 41 88  1  0  0  0  0
 41 89  1  0  0  0  0
 42 43  1  0  0  0  0
 42 90  1  0  0  0  0
 42 91  1  0  0  0  0
 43 44  1  0  0  0  0
 44 45  1  0  0  0  0
 44 92  1  0  0  0  0
 44 93  1  0  0  0  0
 45 94  1  0  0  0  0
 45 95  1  0  0  0  0
 45 96  1  0  0  0  0
M  END
> <PUBCHEM_COMPOUND_CID>
44543716

> <PUBCHEM_COMPOUND_CANONICALIZED>
1

> <PUBCHEM_CACTVS_COMPLEXITY>
1200

> <PUBCHEM_CACTVS_HBOND_ACCEPTOR>
7

> <PUBCHEM_CACTVS_HBOND_DONOR>
3

> <PUBCHEM_CACTVS_ROTATABLE_BOND>
12

> <PUBCHEM_CACTVS_SUBSKEYS>
AAADcfB/uAAAAAAAAAAAAAAAAAAAAQAAAAAsQAAAAAAAAEAAAAAAHgAUAAAADSzBgAYCAAPQAACIAqFWUACAAAAgAAAoCIGIAAgIQBIAgSAUAAAAlgCIgAMYiICOAAAAAAAAAAAAAAAAAAAAAAAAAAAAAA==

> <PUBCHEM_IUPAC_OPENEYE_NAME>
(3S,6S,9S,12R)-6-[(1-methoxy-3a,7a-dihydroindol-3-yl)methyl]-3-[(1S)-1-methylpropyl]-9-(6-oxooctyl)-1,4,7,10-tetrazabicyclo[10.4.0]hexadecane-2,5,8,11-tetrone

> <PUBCHEM_IUPAC_CAS_NAME>
(3S,6S,9S,12R)-3-[(2S)-butan-2-yl]-6-[(1-methoxy-3a,7a-dihydroindol-3-yl)methyl]-9-(6-oxooctyl)-1,4,7,10-tetrazabicyclo[10.4.0]hexadecane-2,5,8,11-tetrone

> <PUBCHEM_IUPAC_NAME>
(3S,6S,9S,12R)-3-[(2S)-butan-2-yl]-6-[(1-methoxy-3a,7a-dihydroindol-3-yl)methyl]-9-(6-oxooctyl)-1,4,7,10-tetrazabicyclo[10.4.0]hexadecane-2,5,8,11-tetrone

> <PUBCHEM_IUPAC_SYSTEMATIC_NAME>
(3S,6S,9S,12R)-3-[(2S)-butan-2-yl]-6-[(1-methoxy-3a,7a-dihydroindol-3-yl)methyl]-9-(6-oxidanylideneoctyl)-1,4,7,10-tetrazabicyclo[10.4.0]hexadecane-2,5,8,11-tetrone

> <PUBCHEM_IUPAC_TRADITIONAL_NAME>
(3S,6S,9S,12R)-9-(6-ketooctyl)-6-[(1-methoxy-3a,7a-dihydroindol-3-yl)methyl]-3-[(1S)-1-methylpropyl]-1,4,7,10-tetrazabicyclo[10.4.0]hexadecane-2,5,8,11-diquinone

> <PUBCHEM_IUPAC_INCHI>
InChI=1S/C34H51N5O6/c1-5-22(3)30-34(44)38-19-13-12-18-29(38)33(43)35-26(16-9-7-8-14-24(40)6-2)31(41)36-27(32(42)37-30)20-23-21-39(45-4)28-17-11-10-15-25(23)28/h10-11,15,17,21-22,25-30H,5-9,12-14,16,18-20H2,1-4H3,(H,35,43)(H,36,41)(H,37,42)/t22-,25?,26-,27-,28?,29+,30-/m0/s1

> <PUBCHEM_IUPAC_INCHIKEY>
QAVZJCMASVHPBU-VMBHWJAXSA-N

> <PUBCHEM_XLOGP3_AA>
3.6

> <PUBCHEM_EXACT_MASS>
625.384

> <PUBCHEM_MOLECULAR_FORMULA>
C34H51N5O6

> <PUBCHEM_MOLECULAR_WEIGHT>
625.811

> <PUBCHEM_OPENEYE_CAN_SMILES>
CCC(C)C1C(=O)N2CCCCC2C(=O)NC(C(=O)NC(C(=O)N1)CC3=CN(C4C3C=CC=C4)OC)CCCCCC(=O)CC

> <PUBCHEM_OPENEYE_ISO_SMILES>
CC[C@H](C)[C@H]1C(=O)N2CCCC[C@@H]2C(=O)N[C@H](C(=O)N[C@H](C(=O)N1)CC3=CN(C4C3C=CC=C4)OC)CCCCCC(=O)CC

> <PUBCHEM_CACTVS_TPSA>
137

> <PUBCHEM_MONOISOTOPIC_WEIGHT>
625.384

> <PUBCHEM_TOTAL_CHARGE>
0

> <PUBCHEM_HEAVY_ATOM_COUNT>
45

> <PUBCHEM_ATOM_DEF_STEREO_COUNT>
5

> <PUBCHEM_ATOM_UDEF_STEREO_COUNT>
2

> <PUBCHEM_BOND_DEF_STEREO_COUNT>
0

> <PUBCHEM_BOND_UDEF_STEREO_COUNT>
0

> <PUBCHEM_ISOTOPIC_ATOM_COUNT>
0

> <PUBCHEM_COMPONENT_COUNT>
1

> <PUBCHEM_CACTVS_TAUTO_COUNT>
162

> <PUBCHEM_COORDINATE_TYPE>
1
5
255

> <PUBCHEM_BONDANNOTATIONS>
12  46  6
15  51  5
18  22  3
19  32  3
21  33  6
23  24  6
26  31  6

$$$$
