53399243
  -OEChem-12071809292D

150155  0     1  0  0  0  0  0999 V2000
    8.0160    3.3100    0.0000 O   0  0  0  0  0  0  0  0  0  0  0  0
    7.1164    8.8758    0.0000 O   0  0  0  0  0  0  0  0  0  0  0  0
    4.6801    9.5722    0.0000 O   0  0  0  0  0  0  0  0  0  0  0  0
   11.6609    4.3410    0.0000 O   0  0  0  0  0  0  0  0  0  0  0  0
    6.2839    3.3100    0.0000 O   0  0  0  0  0  0  0  0  0  0  0  0
    3.0358    9.0278    0.0000 O   0  0  0  0  0  0  0  0  0  0  0  0
    6.2839    0.3100    0.0000 O   0  0  0  0  0  0  0  0  0  0  0  0
    4.0514   11.4708    0.0000 O   0  0  0  0  0  0  0  0  0  0  0  0
    4.5519    1.3100    0.0000 O   0  0  0  0  0  0  0  0  0  0  0  0
    2.0929   11.8757    0.0000 O   0  0  0  0  0  0  0  0  0  0  0  0
    0.7629   10.3820    0.0000 O   0  0  0  0  0  0  0  0  0  0  0  0
    3.6858    2.8100    0.0000 O   0  0  0  0  0  0  0  0  0  0  0  0
    0.4123    8.6858    0.0000 O   0  0  0  0  0  0  0  0  0  0  0  0
    6.9638   15.1966    0.0000 O   0  0  0  0  0  0  0  0  0  0  0  0
    4.3657   16.6966    0.0000 O   0  0  0  0  0  0  0  0  0  0  0  0
    6.0977   17.6966    0.0000 O   0  0  0  0  0  0  0  0  0  0  0  0
    4.3657   14.6966    0.0000 O   0  0  0  0  0  0  0  0  0  0  0  0
    7.8298   16.6966    0.0000 O   0  0  0  0  0  0  0  0  0  0  0  0
    7.1279    5.8758    0.0000 C   0  0  3  0  0  0  0  0  0  0  0  0
    6.2600    6.3725    0.0000 C   0  0  3  0  0  0  0  0  0  0  0  0
    7.9920    6.3792    0.0000 C   0  0  3  0  0  0  0  0  0  0  0  0
    8.9040    5.8758    0.0000 C   0  0  3  0  0  0  0  0  0  0  0  0
    6.2561    7.3725    0.0000 C   0  0  3  0  0  0  0  0  0  0  0  0
    8.9160    4.8343    0.0000 C   0  0  3  0  0  0  0  0  0  0  0  0
    7.1159    4.8343    0.0000 C   0  0  0  0  0  0  0  0  0  0  0  0
    7.9882    7.3792    0.0000 C   0  0  0  0  0  0  0  0  0  0  0  0
    5.3088    7.6736    0.0000 C   0  0  3  0  0  0  0  0  0  0  0  0
    7.1202    7.8758    0.0000 C   0  0  3  0  0  0  0  0  0  0  0  0
    5.3149    6.0641    0.0000 C   0  0  0  0  0  0  0  0  0  0  0  0
    8.0160    4.3100    0.0000 C   0  0  3  0  0  0  0  0  0  0  0  0
    9.8536    4.2882    0.0000 C   0  0  0  0  0  0  0  0  0  0  0  0
    4.7282    6.8666    0.0000 C   0  0  0  0  0  0  0  0  0  0  0  0
    9.8286    6.4435    0.0000 C   0  0  0  0  0  0  0  0  0  0  0  0
    6.4881    5.1074    0.0000 C   0  0  0  0  0  0  0  0  0  0  0  0
    5.9216    5.4315    0.0000 C   0  0  0  0  0  0  0  0  0  0  0  0
    8.8924    6.8758    0.0000 C   0  0  0  0  0  0  0  0  0  0  0  0
   10.7911    4.8343    0.0000 C   0  0  3  0  0  0  0  0  0  0  0  0
    4.9944    8.6229    0.0000 C   0  0  3  0  0  0  0  0  0  0  0  0
   10.7785    5.9192    0.0000 C   0  0  0  0  0  0  0  0  0  0  0  0
   10.3536    3.4222    0.0000 C   0  0  0  0  0  0  0  0  0  0  0  0
    9.3536    3.4222    0.0000 C   0  0  0  0  0  0  0  0  0  0  0  0
    4.0451    8.3086    0.0000 C   0  0  0  0  0  0  0  0  0  0  0  0
    5.9437    8.9372    0.0000 C   0  0  0  0  0  0  0  0  0  0  0  0
    7.1499    2.8100    0.0000 C   0  0  3  0  0  0  0  0  0  0  0  0
    3.8427    7.3293    0.0000 C   0  0  0  0  0  0  0  0  0  0  0  0
    7.1499    1.8100    0.0000 C   0  0  3  0  0  0  0  0  0  0  0  0
    3.7008    9.7747    0.0000 C   0  0  3  0  0  0  0  0  0  0  0  0
    6.2839    1.3100    0.0000 C   0  0  3  0  0  0  0  0  0  0  0  0
    3.3865   10.7240    0.0000 C   0  0  3  0  0  0  0  0  0  0  0  0
    5.4179    2.8100    0.0000 C   0  0  3  0  0  0  0  0  0  0  0  0
    2.8934    7.0150    0.0000 C   0  0  0  0  0  0  0  0  0  0  0  0
    5.4179    1.8100    0.0000 C   0  0  3  0  0  0  0  0  0  0  0  0
    8.0160    1.3100    0.0000 C   0  0  0  0  0  0  0  0  0  0  0  0
    2.4072   10.9264    0.0000 C   0  0  3  0  0  0  0  0  0  0  0  0
    2.0565    9.2302    0.0000 C   0  0  3  0  0  0  0  0  0  0  0  0
    1.7422   10.1796    0.0000 C   0  0  3  0  0  0  0  0  0  0  0  0
    4.5519    3.3100    0.0000 C   0  0  0  0  0  0  0  0  0  0  0  0
    2.6909    6.0357    0.0000 C   0  0  0  0  0  0  0  0  0  0  0  0
    1.3916    8.4834    0.0000 C   0  0  0  0  0  0  0  0  0  0  0  0
    1.7416    5.7213    0.0000 C   0  0  0  0  0  0  0  0  0  0  0  0
    3.4378    5.3707    0.0000 C   0  0  0  0  0  0  0  0  0  0  0  0
    5.2317   16.1966    0.0000 C   0  0  3  0  0  0  0  0  0  0  0  0
    6.0977   16.6966    0.0000 C   0  0  3  0  0  0  0  0  0  0  0  0
    5.2317   15.1966    0.0000 C   0  0  3  0  0  0  0  0  0  0  0  0
    6.9638   16.1966    0.0000 C   0  0  3  0  0  0  0  0  0  0  0  0
    6.0977   14.6966    0.0000 C   0  0  0  0  0  0  0  0  0  0  0  0
    8.5253    6.6954    0.0000 H   0  0  0  0  0  0  0  0  0  0  0  0
    6.1882    7.9888    0.0000 H   0  0  0  0  0  0  0  0  0  0  0  0
    8.9160    4.2143    0.0000 H   0  0  0  0  0  0  0  0  0  0  0  0
    6.5063    4.9474    0.0000 H   0  0  0  0  0  0  0  0  0  0  0  0
    6.9001    4.2530    0.0000 H   0  0  0  0  0  0  0  0  0  0  0  0
    8.5992    7.2739    0.0000 H   0  0  0  0  0  0  0  0  0  0  0  0
    8.1980    7.9626    0.0000 H   0  0  0  0  0  0  0  0  0  0  0  0
    4.6959    7.7674    0.0000 H   0  0  0  0  0  0  0  0  0  0  0  0
    7.6560    8.1879    0.0000 H   0  0  0  0  0  0  0  0  0  0  0  0
    4.7788    5.7528    0.0000 H   0  0  0  0  0  0  0  0  0  0  0  0
    5.5682    5.4982    0.0000 H   0  0  0  0  0  0  0  0  0  0  0  0
    8.5535    4.0010    0.0000 H   0  0  0  0  0  0  0  0  0  0  0  0
    4.2658    7.2796    0.0000 H   0  0  0  0  0  0  0  0  0  0  0  0
    4.2690    6.4501    0.0000 H   0  0  0  0  0  0  0  0  0  0  0  0
   10.2167    6.9270    0.0000 H   0  0  0  0  0  0  0  0  0  0  0  0
    9.4186    6.9086    0.0000 H   0  0  0  0  0  0  0  0  0  0  0  0
    6.0116    5.5041    0.0000 H   0  0  0  0  0  0  0  0  0  0  0  0
    6.0914    4.6309    0.0000 H   0  0  0  0  0  0  0  0  0  0  0  0
    6.9646    4.7106    0.0000 H   0  0  0  0  0  0  0  0  0  0  0  0
    5.3382    5.6413    0.0000 H   0  0  0  0  0  0  0  0  0  0  0  0
    5.7118    4.8481    0.0000 H   0  0  0  0  0  0  0  0  0  0  0  0
    6.5050    5.2217    0.0000 H   0  0  0  0  0  0  0  0  0  0  0  0
    9.5124    6.8830    0.0000 H   0  0  0  0  0  0  0  0  0  0  0  0
    8.8852    7.4957    0.0000 H   0  0  0  0  0  0  0  0  0  0  0  0
    8.2724    6.8686    0.0000 H   0  0  0  0  0  0  0  0  0  0  0  0
   11.3250    5.1494    0.0000 H   0  0  0  0  0  0  0  0  0  0  0  0
   11.3906    5.8202    0.0000 H   0  0  0  0  0  0  0  0  0  0  0  0
   10.9808    6.5053    0.0000 H   0  0  0  0  0  0  0  0  0  0  0  0
    8.8166    3.7322    0.0000 H   0  0  0  0  0  0  0  0  0  0  0  0
    9.0436    2.8852    0.0000 H   0  0  0  0  0  0  0  0  0  0  0  0
    9.8905    3.1122    0.0000 H   0  0  0  0  0  0  0  0  0  0  0  0
    9.8166    3.1122    0.0000 H   0  0  0  0  0  0  0  0  0  0  0  0
   10.6636    2.8852    0.0000 H   0  0  0  0  0  0  0  0  0  0  0  0
   10.8905    3.7322    0.0000 H   0  0  0  0  0  0  0  0  0  0  0  0
    7.6521    9.1879    0.0000 H   0  0  0  0  0  0  0  0  0  0  0  0
    3.9554    8.9220    0.0000 H   0  0  0  0  0  0  0  0  0  0  0  0
    3.4254    8.3268    0.0000 H   0  0  0  0  0  0  0  0  0  0  0  0
    6.1386    8.3486    0.0000 H   0  0  0  0  0  0  0  0  0  0  0  0
    6.5323    9.1321    0.0000 H   0  0  0  0  0  0  0  0  0  0  0  0
    5.7489    9.5258    0.0000 H   0  0  0  0  0  0  0  0  0  0  0  0
    7.6869    2.5000    0.0000 H   0  0  0  0  0  0  0  0  0  0  0  0
   12.1955    4.6551    0.0000 H   0  0  0  0  0  0  0  0  0  0  0  0
    3.9324    6.7158    0.0000 H   0  0  0  0  0  0  0  0  0  0  0  0
    4.4624    7.3111    0.0000 H   0  0  0  0  0  0  0  0  0  0  0  0
    7.1499    1.1900    0.0000 H   0  0  0  0  0  0  0  0  0  0  0  0
    3.8957    9.1861    0.0000 H   0  0  0  0  0  0  0  0  0  0  0  0
    5.7470    1.0000    0.0000 H   0  0  0  0  0  0  0  0  0  0  0  0
    3.9936   10.5985    0.0000 H   0  0  0  0  0  0  0  0  0  0  0  0
    5.4179    3.4300    0.0000 H   0  0  0  0  0  0  0  0  0  0  0  0
    2.4303    7.4272    0.0000 H   0  0  0  0  0  0  0  0  0  0  0  0
    4.8809    2.1200    0.0000 H   0  0  0  0  0  0  0  0  0  0  0  0
    7.7060    0.7731    0.0000 H   0  0  0  0  0  0  0  0  0  0  0  0
    8.5529    1.0000    0.0000 H   0  0  0  0  0  0  0  0  0  0  0  0
    8.3260    1.8469    0.0000 H   0  0  0  0  0  0  0  0  0  0  0  0
    2.8195   11.3895    0.0000 H   0  0  0  0  0  0  0  0  0  0  0  0
    2.2514    8.6417    0.0000 H   0  0  0  0  0  0  0  0  0  0  0  0
    1.3299    9.7165    0.0000 H   0  0  0  0  0  0  0  0  0  0  0  0
    4.9504    3.7850    0.0000 H   0  0  0  0  0  0  0  0  0  0  0  0
    4.1533    3.7850    0.0000 H   0  0  0  0  0  0  0  0  0  0  0  0
    6.8208    0.0000    0.0000 H   0  0  0  0  0  0  0  0  0  0  0  0
    3.8566   12.0594    0.0000 H   0  0  0  0  0  0  0  0  0  0  0  0
    4.5519    0.6900    0.0000 H   0  0  0  0  0  0  0  0  0  0  0  0
    1.1625    7.9072    0.0000 H   0  0  0  0  0  0  0  0  0  0  0  0
    1.9192    8.1578    0.0000 H   0  0  0  0  0  0  0  0  0  0  0  0
    1.4857   12.0013    0.0000 H   0  0  0  0  0  0  0  0  0  0  0  0
    1.5467    6.3099    0.0000 H   0  0  0  0  0  0  0  0  0  0  0  0
    1.1530    5.5265    0.0000 H   0  0  0  0  0  0  0  0  0  0  0  0
    1.9365    5.1328    0.0000 H   0  0  0  0  0  0  0  0  0  0  0  0
    3.0255    4.9076    0.0000 H   0  0  0  0  0  0  0  0  0  0  0  0
    3.9008    4.9584    0.0000 H   0  0  0  0  0  0  0  0  0  0  0  0
    3.8500    5.8338    0.0000 H   0  0  0  0  0  0  0  0  0  0  0  0
    0.5680   10.9706    0.0000 H   0  0  0  0  0  0  0  0  0  0  0  0
    3.1489    3.1200    0.0000 H   0  0  0  0  0  0  0  0  0  0  0  0
    0.0000    8.2228    0.0000 H   0  0  0  0  0  0  0  0  0  0  0  0
    4.6948   15.8866    0.0000 H   0  0  0  0  0  0  0  0  0  0  0  0
    5.5608   17.0066    0.0000 H   0  0  0  0  0  0  0  0  0  0  0  0
    5.7686   15.5066    0.0000 H   0  0  0  0  0  0  0  0  0  0  0  0
    6.9638   16.8166    0.0000 H   0  0  0  0  0  0  0  0  0  0  0  0
    5.6992   14.2216    0.0000 H   0  0  0  0  0  0  0  0  0  0  0  0
    6.4963   14.2216    0.0000 H   0  0  0  0  0  0  0  0  0  0  0  0
    3.8288   16.3866    0.0000 H   0  0  0  0  0  0  0  0  0  0  0  0
    6.6347   18.0066    0.0000 H   0  0  0  0  0  0  0  0  0  0  0  0
    4.3657   14.0766    0.0000 H   0  0  0  0  0  0  0  0  0  0  0  0
    8.3667   16.3866    0.0000 H   0  0  0  0  0  0  0  0  0  0  0  0
  1 30  1  0  0  0  0
  1 44  1  0  0  0  0
  2 28  1  0  0  0  0
  2101  1  0  0  0  0
  3 38  1  0  0  0  0
  3 47  1  0  0  0  0
  4 37  1  0  0  0  0
  4108  1  0  0  0  0
  5 44  1  0  0  0  0
  5 50  1  0  0  0  0
  6 47  1  0  0  0  0
  6 55  1  0  0  0  0
  7 48  1  0  0  0  0
  7126  1  0  0  0  0
  8 49  1  0  0  0  0
  8127  1  0  0  0  0
  9 52  1  0  0  0  0
  9128  1  0  0  0  0
 10 54  1  0  0  0  0
 10131  1  0  0  0  0
 11 56  1  0  0  0  0
 11138  1  0  0  0  0
 12 57  1  0  0  0  0
 12139  1  0  0  0  0
 13 59  1  0  0  0  0
 13140  1  0  0  0  0
 14 65  1  0  0  0  0
 14 66  1  0  0  0  0
 15 62  1  0  0  0  0
 15147  1  0  0  0  0
 16 63  1  0  0  0  0
 16148  1  0  0  0  0
 17 64  1  0  0  0  0
 17149  1  0  0  0  0
 18 65  1  0  0  0  0
 18150  1  0  0  0  0
 19 20  1  0  0  0  0
 19 21  1  0  0  0  0
 19 25  1  0  0  0  0
 19 34  1  0  0  0  0
 20 23  1  0  0  0  0
 20 29  1  0  0  0  0
 20 35  1  0  0  0  0
 21 22  1  0  0  0  0
 21 26  1  0  0  0  0
 21 67  1  0  0  0  0
 22 24  1  0  0  0  0
 22 33  1  0  0  0  0
 22 36  1  0  0  0  0
 23 27  1  0  0  0  0
 23 28  1  0  0  0  0
 23 68  1  0  0  0  0
 24 30  1  0  0  0  0
 24 31  1  0  0  0  0
 24 69  1  0  0  0  0
 25 30  1  0  0  0  0
 25 70  1  0  0  0  0
 25 71  1  0  0  0  0
 26 28  1  0  0  0  0
 26 72  1  0  0  0  0
 26 73  1  0  0  0  0
 27 32  1  0  0  0  0
 27 38  1  0  0  0  0
 27 74  1  0  0  0  0
 28 75  1  0  0  0  0
 29 32  1  0  0  0  0
 29 76  1  0  0  0  0
 29 77  1  0  0  0  0
 30 78  1  0  0  0  0
 31 37  1  0  0  0  0
 31 40  1  0  0  0  0
 31 41  1  0  0  0  0
 32 79  1  0  0  0  0
 32 80  1  0  0  0  0
 33 39  1  0  0  0  0
 33 81  1  0  0  0  0
 33 82  1  0  0  0  0
 34 83  1  0  0  0  0
 34 84  1  0  0  0  0
 34 85  1  0  0  0  0
 35 86  1  0  0  0  0
 35 87  1  0  0  0  0
 35 88  1  0  0  0  0
 36 89  1  0  0  0  0
 36 90  1  0  0  0  0
 36 91  1  0  0  0  0
 37 39  1  0  0  0  0
 37 92  1  0  0  0  0
 38 42  1  0  0  0  0
 38 43  1  0  0  0  0
 39 93  1  0  0  0  0
 39 94  1  0  0  0  0
 40 98  1  0  0  0  0
 40 99  1  0  0  0  0
 40100  1  0  0  0  0
 41 95  1  0  0  0  0
 41 96  1  0  0  0  0
 41 97  1  0  0  0  0
 42 45  1  0  0  0  0
 42102  1  0  0  0  0
 42103  1  0  0  0  0
 43104  1  0  0  0  0
 43105  1  0  0  0  0
 43106  1  0  0  0  0
 44 46  1  0  0  0  0
 44107  1  0  0  0  0
 45 51  1  0  0  0  0
 45109  1  0  0  0  0
 45110  1  0  0  0  0
 46 48  1  0  0  0  0
 46 53  1  0  0  0  0
 46111  1  0  0  0  0
 47 49  1  0  0  0  0
 47112  1  0  0  0  0
 48 52  1  0  0  0  0
 48113  1  0  0  0  0
 49 54  1  0  0  0  0
 49114  1  0  0  0  0
 50 52  1  0  0  0  0
 50 57  1  0  0  0  0
 50115  1  0  0  0  0
 51 58  2  0  0  0  0
 51116  1  0  0  0  0
 52117  1  0  0  0  0
 53118  1  0  0  0  0
 53119  1  0  0  0  0
 53120  1  0  0  0  0
 54 56  1  0  0  0  0
 54121  1  0  0  0  0
 55 56  1  0  0  0  0
 55 59  1  0  0  0  0
 55122  1  0  0  0  0
 56123  1  0  0  0  0
 57124  1  0  0  0  0
 57125  1  0  0  0  0
 58 60  1  0  0  0  0
 58 61  1  0  0  0  0
 59129  1  0  0  0  0
 59130  1  0  0  0  0
 60132  1  0  0  0  0
 60133  1  0  0  0  0
 60134  1  0  0  0  0
 61135  1  0  0  0  0
 61136  1  0  0  0  0
 61137  1  0  0  0  0
 62 63  1  0  0  0  0
 62 64  1  0  0  0  0
 62141  1  0  0  0  0
 63 65  1  0  0  0  0
 63142  1  0  0  0  0
 64 66  1  0  0  0  0
 64143  1  0  0  0  0
 65144  1  0  0  0  0
 66145  1  0  0  0  0
 66146  1  0  0  0  0
M  END
> <PUBCHEM_COMPOUND_CID>
53399243

> <PUBCHEM_COMPOUND_CANONICALIZED>
1

> <PUBCHEM_CACTVS_COMPLEXITY>
1520

> <PUBCHEM_CACTVS_HBOND_ACCEPTOR>
18

> <PUBCHEM_CACTVS_HBOND_DONOR>
13

> <PUBCHEM_CACTVS_ROTATABLE_BOND>
10

> <PUBCHEM_CACTVS_SUBSKEYS>
AAADcfB8PgAAAAAAAAAAAAAAAAAAAYAAAAA0aNECAAAAAGDAAAAAGgAACAAAD1SwgAMCCAAABgCAAiBCAAAAAAAgAAAACAAAAAgREAIAAQAiQAAFgAAPAAPA4PwPgAAAAAAAAADAAAYAADAAAQAACAAAAA==

> <PUBCHEM_IUPAC_OPENEYE_NAME>
2-[1-[6-[4,5-dihydroxy-6-(hydroxymethyl)-3-methyl-tetrahydropyran-2-yl]oxy-3,12-dihydroxy-4,4,8,10,14-pentamethyl-2,3,5,6,7,9,11,12,13,15,16,17-dodecahydro-1H-cyclopenta[a]phenanthren-17-yl]-1,5-dimethyl-hex-4-enoxy]-6-(hydroxymethyl)tetrahydropyran-3,4,5-triol;tetrahydropyran-2,3,4,5-tetrol

> <PUBCHEM_IUPAC_CAS_NAME>
2-[2-[6-[[4,5-dihydroxy-6-(hydroxymethyl)-3-methyl-2-oxanyl]oxy]-3,12-dihydroxy-4,4,8,10,14-pentamethyl-2,3,5,6,7,9,11,12,13,15,16,17-dodecahydro-1H-cyclopenta[a]phenanthren-17-yl]-6-methylhept-5-en-2-yl]oxy-6-(hydroxymethyl)oxane-3,4,5-triol;oxane-2,3,4,5-tetrol

> <PUBCHEM_IUPAC_NAME>
2-[2-[6-[4,5-dihydroxy-6-(hydroxymethyl)-3-methyloxan-2-yl]oxy-3,12-dihydroxy-4,4,8,10,14-pentamethyl-2,3,5,6,7,9,11,12,13,15,16,17-dodecahydro-1H-cyclopenta[a]phenanthren-17-yl]-6-methylhept-5-en-2-yl]oxy-6-(hydroxymethyl)oxane-3,4,5-triol;oxane-2,3,4,5-tetrol

> <PUBCHEM_IUPAC_SYSTEMATIC_NAME>
2-(hydroxymethyl)-6-[2-[6-[6-(hydroxymethyl)-3-methyl-4,5-bis(oxidanyl)oxan-2-yl]oxy-4,4,8,10,14-pentamethyl-3,12-bis(oxidanyl)-2,3,5,6,7,9,11,12,13,15,16,17-dodecahydro-1H-cyclopenta[a]phenanthren-17-yl]-6-methyl-hept-5-en-2-yl]oxy-oxane-3,4,5-triol;oxane-2,3,4,5-tetrol

> <PUBCHEM_IUPAC_TRADITIONAL_NAME>
2-[1-[6-(4,5-dihydroxy-3-methyl-6-methylol-tetrahydropyran-2-yl)oxy-3,12-dihydroxy-4,4,8,10,14-pentamethyl-2,3,5,6,7,9,11,12,13,15,16,17-dodecahydro-1H-cyclopenta[a]phenanthren-17-yl]-1,5-dimethyl-hex-4-enoxy]-6-methylol-tetrahydropyran-3,4,5-triol;tetrahydropyran-2,3,4,5-tetrol

> <PUBCHEM_IUPAC_INCHI>
InChI=1S/C43H74O13.C5H10O5/c1-21(2)11-10-14-43(9,56-38-35(52)34(51)33(50)27(20-45)55-38)23-12-16-41(7)30(23)24(46)17-28-40(6)15-13-29(47)39(4,5)36(40)25(18-42(28,41)8)53-37-22(3)31(48)32(49)26(19-44)54-37;6-2-1-10-5(9)4(8)3(2)7/h11,22-38,44-52H,10,12-20H2,1-9H3;2-9H,1H2

> <PUBCHEM_IUPAC_INCHIKEY>
ZBXDHDDTAIOMHK-UHFFFAOYSA-N

> <PUBCHEM_EXACT_MASS>
948.566

> <PUBCHEM_MOLECULAR_FORMULA>
C48H84O18

> <PUBCHEM_MOLECULAR_WEIGHT>
949.182

> <PUBCHEM_OPENEYE_CAN_SMILES>
CC1C(C(C(OC1OC2CC3(C(CC(C4C3(CCC4C(C)(CCC=C(C)C)OC5C(C(C(C(O5)CO)O)O)O)C)O)C6(C2C(C(CC6)O)(C)C)C)C)CO)O)O.C1C(C(C(C(O1)O)O)O)O

> <PUBCHEM_OPENEYE_ISO_SMILES>
CC1C(C(C(OC1OC2CC3(C(CC(C4C3(CCC4C(C)(CCC=C(C)C)OC5C(C(C(C(O5)CO)O)O)O)C)O)C6(C2C(C(CC6)O)(C)C)C)C)CO)O)O.C1C(C(C(C(O1)O)O)O)O

> <PUBCHEM_CACTVS_TPSA>
309

> <PUBCHEM_MONOISOTOPIC_WEIGHT>
948.566

> <PUBCHEM_TOTAL_CHARGE>
0

> <PUBCHEM_HEAVY_ATOM_COUNT>
66

> <PUBCHEM_ATOM_DEF_STEREO_COUNT>
0

> <PUBCHEM_ATOM_UDEF_STEREO_COUNT>
25

> <PUBCHEM_BOND_DEF_STEREO_COUNT>
0

> <PUBCHEM_BOND_UDEF_STEREO_COUNT>
0

> <PUBCHEM_ISOTOPIC_ATOM_COUNT>
0

> <PUBCHEM_COMPONENT_COUNT>
2

> <PUBCHEM_CACTVS_TAUTO_COUNT>
1

> <PUBCHEM_COORDINATE_TYPE>
1
5
255

> <PUBCHEM_BONDANNOTATIONS>
30  1  3
44  1  3
54  10  3
56  11  3
62  15  3
63  16  3
64  17  3
65  18  3
19  34  3
28  2  3
20  35  3
21  26  3
22  36  3
23  28  3
24  31  3
27  32  3
47  3  3
38  43  3
37  4  3
46  53  3
50  57  3
55  59  3
48  7  3
49  8  3
52  9  3

$$$$
