14783
  -OEChem-12071809312D

  2  1  0     0  0  0  0  0  0999 V2000
    2.0000    0.0000    0.0000 Cd  0  0  0  0  0  0  0  0  0  0  0  0
    3.0000    0.0000    0.0000 S   0  0  0  0  0  0  0  0  0  0  0  0
  1  2  2  0  0  0  0
M  END
> <PUBCHEM_COMPOUND_CID>
14783

> <PUBCHEM_COMPOUND_CANONICALIZED>
1

> <PUBCHEM_CACTVS_COMPLEXITY>
2

> <PUBCHEM_CACTVS_HBOND_ACCEPTOR>
1

> <PUBCHEM_CACTVS_HBOND_DONOR>
0

> <PUBCHEM_CACTVS_ROTATABLE_BOND>
0

> <PUBCHEM_CACTVS_SUBSKEYS>
AAADcQAAAABAAAAAAAIAAAAAAAAAAAAAAAAAAAAAAAAAAAAAAAAAAAAAAAAAAAAAAAAAAAAAAAAAAAAAAAAAAAAAAAAAAAAAAAAAAAAAAAAAAAAAAAAAAAAAAAAAAAAAAAAAAAAAAAAAAAAAAAAAAAAAAA==

> <PUBCHEM_IUPAC_OPENEYE_NAME>
thioxocadmium

> <PUBCHEM_IUPAC_CAS_NAME>
sulfanylidenecadmium

> <PUBCHEM_IUPAC_NAME>
sulfanylidenecadmium

> <PUBCHEM_IUPAC_SYSTEMATIC_NAME>
sulfanylidenecadmium

> <PUBCHEM_IUPAC_TRADITIONAL_NAME>
thioxocadmium

> <PUBCHEM_IUPAC_INCHI>
InChI=1S/Cd.S

> <PUBCHEM_IUPAC_INCHIKEY>
CJOBVZJTOIVNNF-UHFFFAOYSA-N

> <PUBCHEM_EXACT_MASS>
145.875

> <PUBCHEM_MOLECULAR_FORMULA>
CdS

> <PUBCHEM_MOLECULAR_WEIGHT>
144.474

> <PUBCHEM_OPENEYE_CAN_SMILES>
S=[Cd]

> <PUBCHEM_OPENEYE_ISO_SMILES>
S=[Cd]

> <PUBCHEM_CACTVS_TPSA>
32.1

> <PUBCHEM_MONOISOTOPIC_WEIGHT>
145.875

> <PUBCHEM_TOTAL_CHARGE>
0

> <PUBCHEM_HEAVY_ATOM_COUNT>
2

> <PUBCHEM_ATOM_DEF_STEREO_COUNT>
0

> <PUBCHEM_ATOM_UDEF_STEREO_COUNT>
0

> <PUBCHEM_BOND_DEF_STEREO_COUNT>
0

> <PUBCHEM_BOND_UDEF_STEREO_COUNT>
0

> <PUBCHEM_ISOTOPIC_ATOM_COUNT>
0

> <PUBCHEM_COMPONENT_COUNT>
1

> <PUBCHEM_CACTVS_TAUTO_COUNT>
1

> <PUBCHEM_COORDINATE_TYPE>
1
5
255

$$$$
