11972379
  -OEChem-12071809272D

 51 53  0     1  0  0  0  0  0999 V2000
    5.1350   -1.8813    0.0000 O   0  0  0  0  0  0  0  0  0  0  0  0
    6.8671   -1.8813    0.0000 O   0  0  0  0  0  0  0  0  0  0  0  0
    5.1350   -4.8813    0.0000 O   0  0  0  0  0  0  0  0  0  0  0  0
    3.4030   -3.8813    0.0000 O   0  0  0  0  0  0  0  0  0  0  0  0
    6.8671   -3.8813    0.0000 O   0  0  0  0  0  0  0  0  0  0  0  0
    2.5369   -2.3813    0.0000 O   0  0  0  0  0  0  0  0  0  0  0  0
    6.8510    2.1602    0.0000 O   0  0  0  0  0  0  0  0  0  0  0  0
    5.1350   -0.8813    0.0000 O   0  0  0  0  0  0  0  0  0  0  0  0
    9.5033    0.6156    0.0000 O   0  0  0  0  0  0  0  0  0  0  0  0
    9.4772    3.6946    0.0000 O   0  0  0  0  0  0  0  0  0  0  0  0
    5.1350   -3.8813    0.0000 C   0  0  1  0  0  0  0  0  0  0  0  0
    4.2690   -3.3813    0.0000 C   0  0  1  0  0  0  0  0  0  0  0  0
    6.0010   -3.3813    0.0000 C   0  0  2  0  0  0  0  0  0  0  0  0
    4.2690   -2.3813    0.0000 C   0  0  1  0  0  0  0  0  0  0  0  0
    6.0010   -2.3813    0.0000 C   0  0  1  0  0  0  0  0  0  0  0  0
    3.4030   -1.8813    0.0000 C   0  0  0  0  0  0  0  0  0  0  0  0
    6.8671   -0.8813    0.0000 C   0  0  0  0  0  0  0  0  0  0  0  0
    7.7331   -0.3813    0.0000 C   0  0  0  0  0  0  0  0  0  0  0  0
    7.7331    0.6187    0.0000 C   0  0  0  0  0  0  0  0  0  0  0  0
    6.0010   -0.3813    0.0000 C   0  0  0  0  0  0  0  0  0  0  0  0
    6.8671    1.1187    0.0000 C   0  0  0  0  0  0  0  0  0  0  0  0
    6.0010    0.6187    0.0000 C   0  0  0  0  0  0  0  0  0  0  0  0
    8.5991   -0.8813    0.0000 C   0  0  0  0  0  0  0  0  0  0  0  0
    8.6431    1.1256    0.0000 C   0  0  0  0  0  0  0  0  0  0  0  0
    7.7490    2.6880    0.0000 C   0  0  0  0  0  0  0  0  0  0  0  0
    8.6511    2.1672    0.0000 C   0  0  0  0  0  0  0  0  0  0  0  0
    7.7452    3.6880    0.0000 C   0  0  0  0  0  0  0  0  0  0  0  0
    8.6093    4.1913    0.0000 C   0  0  0  0  0  0  0  0  0  0  0  0
    8.6054    5.1913    0.0000 C   0  0  0  0  0  0  0  0  0  0  0  0
    5.6720   -4.1913    0.0000 H   0  0  0  0  0  0  0  0  0  0  0  0
    4.2690   -4.0013    0.0000 H   0  0  0  0  0  0  0  0  0  0  0  0
    6.5380   -3.0713    0.0000 H   0  0  0  0  0  0  0  0  0  0  0  0
    4.2690   -1.7613    0.0000 H   0  0  0  0  0  0  0  0  0  0  0  0
    6.0010   -1.7613    0.0000 H   0  0  0  0  0  0  0  0  0  0  0  0
    3.8015   -1.4063    0.0000 H   0  0  0  0  0  0  0  0  0  0  0  0
    3.0044   -1.4063    0.0000 H   0  0  0  0  0  0  0  0  0  0  0  0
    4.5981   -5.1913    0.0000 H   0  0  0  0  0  0  0  0  0  0  0  0
    3.4030   -4.5013    0.0000 H   0  0  0  0  0  0  0  0  0  0  0  0
    6.8671   -4.5013    0.0000 H   0  0  0  0  0  0  0  0  0  0  0  0
    2.0000   -2.0713    0.0000 H   0  0  0  0  0  0  0  0  0  0  0  0
    5.4641    0.9287    0.0000 H   0  0  0  0  0  0  0  0  0  0  0  0
    8.2891   -1.4182    0.0000 H   0  0  0  0  0  0  0  0  0  0  0  0
    9.1360   -1.1913    0.0000 H   0  0  0  0  0  0  0  0  0  0  0  0
    8.9091   -0.3444    0.0000 H   0  0  0  0  0  0  0  0  0  0  0  0
    9.1892    2.4751    0.0000 H   0  0  0  0  0  0  0  0  0  0  0  0
    7.5309    4.2698    0.0000 H   0  0  0  0  0  0  0  0  0  0  0  0
    7.1350    3.5780    0.0000 H   0  0  0  0  0  0  0  0  0  0  0  0
    4.5981   -0.5713    0.0000 H   0  0  0  0  0  0  0  0  0  0  0  0
    9.2254    5.1937    0.0000 H   0  0  0  0  0  0  0  0  0  0  0  0
    8.6030    5.8113    0.0000 H   0  0  0  0  0  0  0  0  0  0  0  0
    7.9854    5.1889    0.0000 H   0  0  0  0  0  0  0  0  0  0  0  0
  1 14  1  0  0  0  0
  1 15  1  0  0  0  0
 15  2  1  1  0  0  0
  2 17  1  0  0  0  0
 11  3  1  1  0  0  0
  3 37  1  0  0  0  0
 12  4  1  6  0  0  0
  4 38  1  0  0  0  0
 13  5  1  6  0  0  0
  5 39  1  0  0  0  0
  6 16  1  0  0  0  0
  6 40  1  0  0  0  0
  7 21  1  0  0  0  0
  7 25  1  0  0  0  0
  8 20  1  0  0  0  0
  8 48  1  0  0  0  0
  9 24  2  0  0  0  0
 10 28  2  0  0  0  0
 11 12  1  0  0  0  0
 11 13  1  0  0  0  0
 11 30  1  0  0  0  0
 12 14  1  0  0  0  0
 12 31  1  0  0  0  0
 13 15  1  0  0  0  0
 13 32  1  0  0  0  0
 14 16  1  1  0  0  0
 14 33  1  0  0  0  0
 15 34  1  0  0  0  0
 16 35  1  0  0  0  0
 16 36  1  0  0  0  0
 17 18  1  0  0  0  0
 17 20  2  0  0  0  0
 18 19  2  0  0  0  0
 18 23  1  0  0  0  0
 19 21  1  0  0  0  0
 19 24  1  0  0  0  0
 20 22  1  0  0  0  0
 21 22  2  0  0  0  0
 22 41  1  0  0  0  0
 23 42  1  0  0  0  0
 23 43  1  0  0  0  0
 23 44  1  0  0  0  0
 24 26  1  0  0  0  0
 25 26  2  0  0  0  0
 25 27  1  0  0  0  0
 26 45  1  0  0  0  0
 27 28  1  0  0  0  0
 27 46  1  0  0  0  0
 27 47  1  0  0  0  0
 28 29  1  0  0  0  0
 29 49  1  0  0  0  0
 29 50  1  0  0  0  0
 29 51  1  0  0  0  0
M  END
> <PUBCHEM_COMPOUND_CID>
11972379

> <PUBCHEM_COMPOUND_CANONICALIZED>
1

> <PUBCHEM_CACTVS_COMPLEXITY>
663

> <PUBCHEM_CACTVS_HBOND_ACCEPTOR>
10

> <PUBCHEM_CACTVS_HBOND_DONOR>
5

> <PUBCHEM_CACTVS_ROTATABLE_BOND>
5

> <PUBCHEM_CACTVS_SUBSKEYS>
AAADceB4PAAAAAAAAAAAAAAAAAAAAAAAAAA0QIAAAAAAAACBAAAAGgAACAAADBSwmAMyDoAABgCIAqBSAAACCAAkIAAAiAEGiMgdNzaGNRqieWOl4BUPuQfK7LzOoQABCAAYQABCAAIQADCAAAAAAAAAAA==

> <PUBCHEM_IUPAC_OPENEYE_NAME>
2-acetonyl-7-hydroxy-5-methyl-6-[(2S,3R,4S,5S,6R)-3,4,5-trihydroxy-6-(hydroxymethyl)tetrahydropyran-2-yl]oxy-chromen-4-one

> <PUBCHEM_IUPAC_CAS_NAME>
7-hydroxy-5-methyl-2-(2-oxopropyl)-6-[[(2S,3R,4S,5S,6R)-3,4,5-trihydroxy-6-(hydroxymethyl)-2-oxanyl]oxy]-1-benzopyran-4-one

> <PUBCHEM_IUPAC_NAME>
7-hydroxy-5-methyl-2-(2-oxopropyl)-6-[(2S,3R,4S,5S,6R)-3,4,5-trihydroxy-6-(hydroxymethyl)oxan-2-yl]oxychromen-4-one

> <PUBCHEM_IUPAC_SYSTEMATIC_NAME>
6-[(2S,3R,4S,5S,6R)-6-(hydroxymethyl)-3,4,5-tris(oxidanyl)oxan-2-yl]oxy-5-methyl-7-oxidanyl-2-(2-oxidanylidenepropyl)chromen-4-one

> <PUBCHEM_IUPAC_TRADITIONAL_NAME>
2-acetonyl-7-hydroxy-5-methyl-6-[(2S,3R,4S,5S,6R)-3,4,5-trihydroxy-6-methylol-tetrahydropyran-2-yl]oxy-chromone

> <PUBCHEM_IUPAC_INCHI>
InChI=1S/C19H22O10/c1-7(21)3-9-4-10(22)14-8(2)18(11(23)5-12(14)27-9)29-19-17(26)16(25)15(24)13(6-20)28-19/h4-5,13,15-17,19-20,23-26H,3,6H2,1-2H3/t13-,15-,16+,17-,19+/m1/s1

> <PUBCHEM_IUPAC_INCHIKEY>
JQJWMEOMYOPXGM-YRHQEJDOSA-N

> <PUBCHEM_XLOGP3_AA>
-1

> <PUBCHEM_EXACT_MASS>
410.121

> <PUBCHEM_MOLECULAR_FORMULA>
C19H22O10

> <PUBCHEM_MOLECULAR_WEIGHT>
410.375

> <PUBCHEM_OPENEYE_CAN_SMILES>
CC1=C2C(=CC(=C1OC3C(C(C(C(O3)CO)O)O)O)O)OC(=CC2=O)CC(=O)C

> <PUBCHEM_OPENEYE_ISO_SMILES>
CC1=C2C(=CC(=C1O[C@H]3[C@@H]([C@H]([C@@H]([C@H](O3)CO)O)O)O)O)OC(=CC2=O)CC(=O)C

> <PUBCHEM_CACTVS_TPSA>
163

> <PUBCHEM_MONOISOTOPIC_WEIGHT>
410.121

> <PUBCHEM_TOTAL_CHARGE>
0

> <PUBCHEM_HEAVY_ATOM_COUNT>
29

> <PUBCHEM_ATOM_DEF_STEREO_COUNT>
5

> <PUBCHEM_ATOM_UDEF_STEREO_COUNT>
0

> <PUBCHEM_BOND_DEF_STEREO_COUNT>
0

> <PUBCHEM_BOND_UDEF_STEREO_COUNT>
0

> <PUBCHEM_ISOTOPIC_ATOM_COUNT>
0

> <PUBCHEM_COMPONENT_COUNT>
1

> <PUBCHEM_CACTVS_TAUTO_COUNT>
78

> <PUBCHEM_COORDINATE_TYPE>
1
5
255

> <PUBCHEM_BONDANNOTATIONS>
14  16  5
17  18  8
17  20  8
18  19  8
19  21  8
19  24  8
15  2  5
20  22  8
21  22  8
24  26  8
25  26  8
11  3  5
12  4  6
13  5  6
7  21  8
7  25  8

$$$$
