44259961
  -OEChem-12071809342D

 61 63  0     0  0  0  0  0  0999 V2000
    6.0682   -0.2500    0.0000 O   0  0  0  0  0  0  0  0  0  0  0  0
    7.8003    1.7500    0.0000 O   0  0  0  0  0  0  0  0  0  0  0  0
    4.3198   -1.2846    0.0000 O   0  0  0  0  0  0  0  0  0  0  0  0
    4.3198    2.7846    0.0000 O   0  0  0  0  0  0  0  0  0  0  0  0
    6.0682    2.7500    0.0000 O   0  0  0  0  0  0  0  0  0  0  0  0
   10.3984   -1.7500    0.0000 O   0  0  0  0  0  0  0  0  0  0  0  0
    2.5381   -0.2742    0.0000 O   0  0  0  0  0  0  0  0  0  0  0  0
    5.2022    1.2500    0.0000 C   0  0  0  0  0  0  0  0  0  0  0  0
    5.2022    0.2500    0.0000 C   0  0  0  0  0  0  0  0  0  0  0  0
    6.9343    0.2500    0.0000 C   0  0  0  0  0  0  0  0  0  0  0  0
    6.9343    1.2500    0.0000 C   0  0  0  0  0  0  0  0  0  0  0  0
    6.0682    1.7500    0.0000 C   0  0  0  0  0  0  0  0  0  0  0  0
    7.8003   -0.2500    0.0000 C   0  0  0  0  0  0  0  0  0  0  0  0
    4.3083   -0.2847    0.0000 C   0  0  0  0  0  0  0  0  0  0  0  0
    4.3083    1.7847    0.0000 C   0  0  0  0  0  0  0  0  0  0  0  0
    3.4022    0.2292    0.0000 C   0  0  0  0  0  0  0  0  0  0  0  0
    3.4022    1.2708    0.0000 C   0  0  0  0  0  0  0  0  0  0  0  0
    7.8003   -1.2500    0.0000 C   0  0  0  0  0  0  0  0  0  0  0  0
    8.6663    0.2500    0.0000 C   0  0  0  0  0  0  0  0  0  0  0  0
    9.5323   -1.2500    0.0000 C   0  0  0  0  0  0  0  0  0  0  0  0
    8.6663   -1.7500    0.0000 C   0  0  0  0  0  0  0  0  0  0  0  0
    9.5323   -0.2500    0.0000 C   0  0  0  0  0  0  0  0  0  0  0  0
    7.8003    2.7500    0.0000 C   0  0  0  0  0  0  0  0  0  0  0  0
    8.6663    3.2500    0.0000 C   0  0  0  0  0  0  0  0  0  0  0  0
    8.6663    4.2500    0.0000 C   0  0  0  0  0  0  0  0  0  0  0  0
   10.3984   -2.7500    0.0000 C   0  0  0  0  0  0  0  0  0  0  0  0
    3.4597   -1.7946    0.0000 C   0  0  0  0  0  0  0  0  0  0  0  0
   11.2644   -3.2500    0.0000 C   0  0  0  0  0  0  0  0  0  0  0  0
    9.5323    4.7500    0.0000 C   0  0  0  0  0  0  0  0  0  0  0  0
    7.8003    4.7500    0.0000 C   0  0  0  0  0  0  0  0  0  0  0  0
   11.2644   -4.2500    0.0000 C   0  0  0  0  0  0  0  0  0  0  0  0
   12.1304   -4.7500    0.0000 C   0  0  0  0  0  0  0  0  0  0  0  0
   10.3984   -4.7500    0.0000 C   0  0  0  0  0  0  0  0  0  0  0  0
    2.8665    1.5829    0.0000 H   0  0  0  0  0  0  0  0  0  0  0  0
    7.2634   -1.5600    0.0000 H   0  0  0  0  0  0  0  0  0  0  0  0
    8.6663    0.8700    0.0000 H   0  0  0  0  0  0  0  0  0  0  0  0
    8.6663   -2.3700    0.0000 H   0  0  0  0  0  0  0  0  0  0  0  0
   10.0693    0.0600    0.0000 H   0  0  0  0  0  0  0  0  0  0  0  0
    7.5882    3.3326    0.0000 H   0  0  0  0  0  0  0  0  0  0  0  0
    7.1897    2.6423    0.0000 H   0  0  0  0  0  0  0  0  0  0  0  0
    9.2033    2.9400    0.0000 H   0  0  0  0  0  0  0  0  0  0  0  0
    3.7865    3.1008    0.0000 H   0  0  0  0  0  0  0  0  0  0  0  0
    9.7878   -2.6423    0.0000 H   0  0  0  0  0  0  0  0  0  0  0  0
   10.1863   -3.3326    0.0000 H   0  0  0  0  0  0  0  0  0  0  0  0
    2.0000    0.0338    0.0000 H   0  0  0  0  0  0  0  0  0  0  0  0
    3.1435   -1.2613    0.0000 H   0  0  0  0  0  0  0  0  0  0  0  0
    2.9263   -2.1108    0.0000 H   0  0  0  0  0  0  0  0  0  0  0  0
    3.7758   -2.3279    0.0000 H   0  0  0  0  0  0  0  0  0  0  0  0
   11.8013   -2.9400    0.0000 H   0  0  0  0  0  0  0  0  0  0  0  0
    9.8424    4.2131    0.0000 H   0  0  0  0  0  0  0  0  0  0  0  0
   10.0693    5.0600    0.0000 H   0  0  0  0  0  0  0  0  0  0  0  0
    9.2224    5.2869    0.0000 H   0  0  0  0  0  0  0  0  0  0  0  0
    8.1103    5.2869    0.0000 H   0  0  0  0  0  0  0  0  0  0  0  0
    7.2634    5.0600    0.0000 H   0  0  0  0  0  0  0  0  0  0  0  0
    7.4903    4.2131    0.0000 H   0  0  0  0  0  0  0  0  0  0  0  0
   11.8204   -5.2869    0.0000 H   0  0  0  0  0  0  0  0  0  0  0  0
   10.0884   -4.2131    0.0000 H   0  0  0  0  0  0  0  0  0  0  0  0
    9.8614   -5.0600    0.0000 H   0  0  0  0  0  0  0  0  0  0  0  0
   10.7084   -5.2869    0.0000 H   0  0  0  0  0  0  0  0  0  0  0  0
   12.6674   -5.0600    0.0000 H   0  0  0  0  0  0  0  0  0  0  0  0
   12.4404   -4.2131    0.0000 H   0  0  0  0  0  0  0  0  0  0  0  0
  1  9  1  0  0  0  0
  1 10  1  0  0  0  0
  2 11  1  0  0  0  0
  2 23  1  0  0  0  0
  3 14  1  0  0  0  0
  3 27  1  0  0  0  0
  4 15  1  0  0  0  0
  4 42  1  0  0  0  0
  5 12  2  0  0  0  0
  6 20  1  0  0  0  0
  6 26  1  0  0  0  0
  7 16  1  0  0  0  0
  7 45  1  0  0  0  0
  8  9  2  0  0  0  0
  8 12  1  0  0  0  0
  8 15  1  0  0  0  0
  9 14  1  0  0  0  0
 10 11  2  0  0  0  0
 10 13  1  0  0  0  0
 11 12  1  0  0  0  0
 13 18  2  0  0  0  0
 13 19  1  0  0  0  0
 14 16  2  0  0  0  0
 15 17  2  0  0  0  0
 16 17  1  0  0  0  0
 17 34  1  0  0  0  0
 18 21  1  0  0  0  0
 18 35  1  0  0  0  0
 19 22  2  0  0  0  0
 19 36  1  0  0  0  0
 20 21  2  0  0  0  0
 20 22  1  0  0  0  0
 21 37  1  0  0  0  0
 22 38  1  0  0  0  0
 23 24  1  0  0  0  0
 23 39  1  0  0  0  0
 23 40  1  0  0  0  0
 24 25  2  0  0  0  0
 24 41  1  0  0  0  0
 25 29  1  0  0  0  0
 25 30  1  0  0  0  0
 26 28  1  0  0  0  0
 26 43  1  0  0  0  0
 26 44  1  0  0  0  0
 27 46  1  0  0  0  0
 27 47  1  0  0  0  0
 27 48  1  0  0  0  0
 28 31  2  0  0  0  0
 28 49  1  0  0  0  0
 29 50  1  0  0  0  0
 29 51  1  0  0  0  0
 29 52  1  0  0  0  0
 30 53  1  0  0  0  0
 30 54  1  0  0  0  0
 30 55  1  0  0  0  0
 31 32  1  0  0  0  0
 31 33  1  0  0  0  0
 32 56  1  0  0  0  0
 32 60  1  0  0  0  0
 32 61  1  0  0  0  0
 33 57  1  0  0  0  0
 33 58  1  0  0  0  0
 33 59  1  0  0  0  0
M  END
> <PUBCHEM_COMPOUND_CID>
44259961

> <PUBCHEM_COMPOUND_CANONICALIZED>
1

> <PUBCHEM_CACTVS_COMPLEXITY>
768

> <PUBCHEM_CACTVS_HBOND_ACCEPTOR>
7

> <PUBCHEM_CACTVS_HBOND_DONOR>
2

> <PUBCHEM_CACTVS_ROTATABLE_BOND>
8

> <PUBCHEM_CACTVS_SUBSKEYS>
AAADceB4OAAAAAAAAAAAAAAAAAAAAAAAAAAwYIAAAAAAAACBQAAAGgAACAAADASgmAIyBoAABgCIAqBSAAICCAAkIAAIiAFGiMgNJzaGNR6CeWOl4BULuQfK7LzOIQABCAAIQABCAAIQABCAAAAAAAAAAA==

> <PUBCHEM_IUPAC_OPENEYE_NAME>
5,7-dihydroxy-8-methoxy-3-(3-methylbut-2-enoxy)-2-[4-(3-methylbut-2-enoxy)phenyl]chromen-4-one

> <PUBCHEM_IUPAC_CAS_NAME>
5,7-dihydroxy-8-methoxy-3-(3-methylbut-2-enoxy)-2-[4-(3-methylbut-2-enoxy)phenyl]-1-benzopyran-4-one

> <PUBCHEM_IUPAC_NAME>
5,7-dihydroxy-8-methoxy-3-(3-methylbut-2-enoxy)-2-[4-(3-methylbut-2-enoxy)phenyl]chromen-4-one

> <PUBCHEM_IUPAC_SYSTEMATIC_NAME>
8-methoxy-3-(3-methylbut-2-enoxy)-2-[4-(3-methylbut-2-enoxy)phenyl]-5,7-bis(oxidanyl)chromen-4-one

> <PUBCHEM_IUPAC_TRADITIONAL_NAME>
5,7-dihydroxy-8-methoxy-3-(3-methylbut-2-enoxy)-2-[4-(3-methylbut-2-enoxy)phenyl]chromone

> <PUBCHEM_IUPAC_INCHI>
InChI=1S/C26H28O7/c1-15(2)10-12-31-18-8-6-17(7-9-18)23-26(32-13-11-16(3)4)22(29)21-19(27)14-20(28)24(30-5)25(21)33-23/h6-11,14,27-28H,12-13H2,1-5H3

> <PUBCHEM_IUPAC_INCHIKEY>
MOGCFWQNDOTUML-UHFFFAOYSA-N

> <PUBCHEM_XLOGP3_AA>
6.1

> <PUBCHEM_EXACT_MASS>
452.184

> <PUBCHEM_MOLECULAR_FORMULA>
C26H28O7

> <PUBCHEM_MOLECULAR_WEIGHT>
452.503

> <PUBCHEM_OPENEYE_CAN_SMILES>
CC(=CCOC1=CC=C(C=C1)C2=C(C(=O)C3=C(O2)C(=C(C=C3O)O)OC)OCC=C(C)C)C

> <PUBCHEM_OPENEYE_ISO_SMILES>
CC(=CCOC1=CC=C(C=C1)C2=C(C(=O)C3=C(O2)C(=C(C=C3O)O)OC)OCC=C(C)C)C

> <PUBCHEM_CACTVS_TPSA>
94.4

> <PUBCHEM_MONOISOTOPIC_WEIGHT>
452.184

> <PUBCHEM_TOTAL_CHARGE>
0

> <PUBCHEM_HEAVY_ATOM_COUNT>
33

> <PUBCHEM_ATOM_DEF_STEREO_COUNT>
0

> <PUBCHEM_ATOM_UDEF_STEREO_COUNT>
0

> <PUBCHEM_BOND_DEF_STEREO_COUNT>
0

> <PUBCHEM_BOND_UDEF_STEREO_COUNT>
0

> <PUBCHEM_ISOTOPIC_ATOM_COUNT>
0

> <PUBCHEM_COMPONENT_COUNT>
1

> <PUBCHEM_CACTVS_TAUTO_COUNT>
12

> <PUBCHEM_COORDINATE_TYPE>
1
5
255

> <PUBCHEM_BONDANNOTATIONS>
1  10  8
1  9  8
10  11  8
11  12  8
13  18  8
13  19  8
14  16  8
15  17  8
16  17  8
18  21  8
19  22  8
20  21  8
20  22  8
8  12  8
8  15  8
8  9  8
9  14  8

$$$$
