5316980
  -OEChem-12071809212D

 73 78  0     1  0  0  0  0  0999 V2000
    2.2505    0.2394    0.0000 O   0  0  0  0  0  0  0  0  0  0  0  0
    2.8823   -3.4787    0.0000 O   0  0  0  0  0  0  0  0  0  0  0  0
    9.1562    1.4884    0.0000 N   0  0  3  0  0  0  0  0  0  0  0  0
    5.2923   -0.0656    0.0000 C   0  0  1  0  0  0  0  0  0  0  0  0
    4.8871    0.8422    0.0000 C   0  0  2  0  0  0  0  0  0  0  0  0
    4.6974   -0.9131    0.0000 C   0  0  2  0  0  0  0  0  0  0  0  0
    5.6242    1.5093    0.0000 C   0  0  1  0  0  0  0  0  0  0  0  0
    6.4902    1.0093    0.0000 C   0  0  1  0  0  0  0  0  0  0  0  0
    6.2810    0.0374    0.0000 C   0  0  0  0  0  0  0  0  0  0  0  0
    3.6667   -0.8137    0.0000 C   0  0  1  0  0  0  0  0  0  0  0  0
    3.8590    0.9654    0.0000 C   0  0  0  0  0  0  0  0  0  0  0  0
    3.2447    0.1319    0.0000 C   0  0  1  0  0  0  0  0  0  0  0  0
    5.1596   -1.8876    0.0000 C   0  0  0  0  0  0  0  0  0  0  0  0
    5.6242    2.5093    0.0000 C   0  0  0  0  0  0  0  0  0  0  0  0
    7.3562    1.5093    0.0000 C   0  0  0  0  0  0  0  0  0  0  0  0
    3.0267   -1.6819    0.0000 C   0  0  0  0  0  0  0  0  0  0  0  0
    5.6927   -1.0091    0.0000 C   0  0  0  0  0  0  0  0  0  0  0  0
    7.3562    2.5093    0.0000 C   0  0  0  0  0  0  0  0  0  0  0  0
    6.4902    3.0093    0.0000 C   0  0  0  0  0  0  0  0  0  0  0  0
    4.5399   -2.7704    0.0000 C   0  0  0  0  0  0  0  0  0  0  0  0
    3.4663   -2.6669    0.0000 C   0  0  2  0  0  0  0  0  0  0  0  0
    8.2502    0.9746    0.0000 C   0  0  0  0  0  0  0  0  0  0  0  0
    8.2502    3.0439    0.0000 C   0  0  2  0  0  0  0  0  0  0  0  0
    9.1562    2.5301    0.0000 C   0  0  2  0  0  0  0  0  0  0  0  0
   10.0874    3.0870    0.0000 C   0  0  0  0  0  0  0  0  0  0  0  0
   10.0874    0.9315    0.0000 C   0  0  0  0  0  0  0  0  0  0  0  0
    8.2386    4.0439    0.0000 C   0  0  0  0  0  0  0  0  0  0  0  0
   11.0312    1.4668    0.0000 C   0  0  1  0  0  0  0  0  0  0  0  0
   11.0312    2.5518    0.0000 C   0  0  0  0  0  0  0  0  0  0  0  0
   11.8953    0.9634    0.0000 C   0  0  0  0  0  0  0  0  0  0  0  0
    5.7229   -0.7984    0.0000 H   0  0  0  0  0  0  0  0  0  0  0  0
    4.6293    1.6521    0.0000 H   0  0  0  0  0  0  0  0  0  0  0  0
    4.8472    1.8540    0.0000 H   0  0  0  0  0  0  0  0  0  0  0  0
    7.1772    0.5088    0.0000 H   0  0  0  0  0  0  0  0  0  0  0  0
    6.2801   -0.5826    0.0000 H   0  0  0  0  0  0  0  0  0  0  0  0
    6.8974   -0.0286    0.0000 H   0  0  0  0  0  0  0  0  0  0  0  0
    2.8216   -0.7223    0.0000 H   0  0  0  0  0  0  0  0  0  0  0  0
    4.0371    1.5593    0.0000 H   0  0  0  0  0  0  0  0  0  0  0  0
    3.3044    1.2424    0.0000 H   0  0  0  0  0  0  0  0  0  0  0  0
    2.8797   -0.3693    0.0000 H   0  0  0  0  0  0  0  0  0  0  0  0
    5.5986   -2.3254    0.0000 H   0  0  0  0  0  0  0  0  0  0  0  0
    5.6660   -1.5300    0.0000 H   0  0  0  0  0  0  0  0  0  0  0  0
    5.4121    3.0919    0.0000 H   0  0  0  0  0  0  0  0  0  0  0  0
    5.0136    2.4016    0.0000 H   0  0  0  0  0  0  0  0  0  0  0  0
    2.5980   -1.2341    0.0000 H   0  0  0  0  0  0  0  0  0  0  0  0
    2.5122   -2.0278    0.0000 H   0  0  0  0  0  0  0  0  0  0  0  0
    5.6332   -1.6262    0.0000 H   0  0  0  0  0  0  0  0  0  0  0  0
    6.3099   -1.0686    0.0000 H   0  0  0  0  0  0  0  0  0  0  0  0
    5.7522   -0.3920    0.0000 H   0  0  0  0  0  0  0  0  0  0  0  0
    6.8887    3.4842    0.0000 H   0  0  0  0  0  0  0  0  0  0  0  0
    6.0917    3.4842    0.0000 H   0  0  0  0  0  0  0  0  0  0  0  0
    4.3756   -3.3683    0.0000 H   0  0  0  0  0  0  0  0  0  0  0  0
    5.1008   -3.0345    0.0000 H   0  0  0  0  0  0  0  0  0  0  0  0
    2.8495   -2.6038    0.0000 H   0  0  0  0  0  0  0  0  0  0  0  0
    7.8456    0.5048    0.0000 H   0  0  0  0  0  0  0  0  0  0  0  0
    8.6438    0.4956    0.0000 H   0  0  0  0  0  0  0  0  0  0  0  0
    8.7841    3.3591    0.0000 H   0  0  0  0  0  0  0  0  0  0  0  0
    9.1464    3.3800    0.0000 H   0  0  0  0  0  0  0  0  0  0  0  0
    2.0000    0.8065    0.0000 H   0  0  0  0  0  0  0  0  0  0  0  0
   10.4810    3.5660    0.0000 H   0  0  0  0  0  0  0  0  0  0  0  0
    9.6828    3.5568    0.0000 H   0  0  0  0  0  0  0  0  0  0  0  0
    9.6828    0.4617    0.0000 H   0  0  0  0  0  0  0  0  0  0  0  0
   10.4810    0.4525    0.0000 H   0  0  0  0  0  0  0  0  0  0  0  0
    8.8585    4.0510    0.0000 H   0  0  0  0  0  0  0  0  0  0  0  0
    8.2314    4.6638    0.0000 H   0  0  0  0  0  0  0  0  0  0  0  0
    7.6186    4.0367    0.0000 H   0  0  0  0  0  0  0  0  0  0  0  0
   11.5687    1.7757    0.0000 H   0  0  0  0  0  0  0  0  0  0  0  0
   11.6420    2.4457    0.0000 H   0  0  0  0  0  0  0  0  0  0  0  0
   11.2402    3.1354    0.0000 H   0  0  0  0  0  0  0  0  0  0  0  0
    3.1372   -4.0439    0.0000 H   0  0  0  0  0  0  0  0  0  0  0  0
   11.5832    0.4277    0.0000 H   0  0  0  0  0  0  0  0  0  0  0  0
   12.4310    0.6514    0.0000 H   0  0  0  0  0  0  0  0  0  0  0  0
   12.2073    1.4992    0.0000 H   0  0  0  0  0  0  0  0  0  0  0  0
 12  1  1  6  0  0  0
  1 59  1  0  0  0  0
 21  2  1  6  0  0  0
  2 70  1  0  0  0  0
  3 22  1  0  0  0  0
  3 24  1  0  0  0  0
  3 26  1  0  0  0  0
  4  5  1  0  0  0  0
  4  6  1  0  0  0  0
  4  9  1  0  0  0  0
  4 31  1  1  0  0  0
  5  7  1  0  0  0  0
  5 11  1  0  0  0  0
  5 32  1  6  0  0  0
  6 10  1  0  0  0  0
  6 13  1  0  0  0  0
  6 17  1  6  0  0  0
  7  8  1  0  0  0  0
  7 14  1  0  0  0  0
  7 33  1  1  0  0  0
  8  9  1  0  0  0  0
  8 15  1  0  0  0  0
  8 34  1  1  0  0  0
  9 35  1  0  0  0  0
  9 36  1  0  0  0  0
 10 12  1  0  0  0  0
 10 16  1  0  0  0  0
 10 37  1  1  0  0  0
 11 12  1  0  0  0  0
 11 38  1  0  0  0  0
 11 39  1  0  0  0  0
 12 40  1  0  0  0  0
 13 20  1  0  0  0  0
 13 41  1  0  0  0  0
 13 42  1  0  0  0  0
 14 19  1  0  0  0  0
 14 43  1  0  0  0  0
 14 44  1  0  0  0  0
 15 18  2  0  0  0  0
 15 22  1  0  0  0  0
 16 21  1  0  0  0  0
 16 45  1  0  0  0  0
 16 46  1  0  0  0  0
 17 47  1  0  0  0  0
 17 48  1  0  0  0  0
 17 49  1  0  0  0  0
 18 19  1  0  0  0  0
 18 23  1  0  0  0  0
 19 50  1  0  0  0  0
 19 51  1  0  0  0  0
 20 21  1  0  0  0  0
 20 52  1  0  0  0  0
 20 53  1  0  0  0  0
 21 54  1  0  0  0  0
 22 55  1  0  0  0  0
 22 56  1  0  0  0  0
 23 24  1  0  0  0  0
 23 27  1  1  0  0  0
 23 57  1  0  0  0  0
 24 25  1  0  0  0  0
 24 58  1  1  0  0  0
 25 29  1  0  0  0  0
 25 60  1  0  0  0  0
 25 61  1  0  0  0  0
 26 28  1  0  0  0  0
 26 62  1  0  0  0  0
 26 63  1  0  0  0  0
 27 64  1  0  0  0  0
 27 65  1  0  0  0  0
 27 66  1  0  0  0  0
 28 29  1  0  0  0  0
 28 30  1  1  0  0  0
 28 67  1  0  0  0  0
 29 68  1  0  0  0  0
 29 69  1  0  0  0  0
 30 71  1  0  0  0  0
 30 72  1  0  0  0  0
 30 73  1  0  0  0  0
M  END
> <PUBCHEM_COMPOUND_CID>
5316980

> <PUBCHEM_COMPOUND_CANONICALIZED>
1

> <PUBCHEM_CACTVS_COMPLEXITY>
732

> <PUBCHEM_CACTVS_HBOND_ACCEPTOR>
3

> <PUBCHEM_CACTVS_HBOND_DONOR>
2

> <PUBCHEM_CACTVS_ROTATABLE_BOND>
0

> <PUBCHEM_CACTVS_SUBSKEYS>
AAADcfB6MAAAAAAAAAAAAAAAAAAAAYAAAAA8YIECAAAAAGDwAAAAHgAACAAADzzhgAYCAAMAAgCAAgBAAACAAAAgAAAACAAIAAgAEAIAgAAEQAAEgACIAAPQwPAPgAAAAAAAAADAAAYAADAAAQAACAAAAA==

> <PUBCHEM_IUPAC_INCHI>
InChI=1S/C27H43NO2/c1-15-4-7-25-16(2)18-5-6-19-20(22(18)14-28(25)13-15)11-23-21(19)12-26(30)24-10-17(29)8-9-27(23,24)3/h15-17,19-21,23-26,29-30H,4-14H2,1-3H3/t15-,16-,17+,19-,20-,21+,23+,24-,25+,26-,27-/m1/s1

> <PUBCHEM_IUPAC_INCHIKEY>
OEJGVNMSFPGDPP-ZHCDIUMISA-N

> <PUBCHEM_XLOGP3_AA>
4.1

> <PUBCHEM_EXACT_MASS>
413.329

> <PUBCHEM_MOLECULAR_FORMULA>
C27H43NO2

> <PUBCHEM_MOLECULAR_WEIGHT>
413.646

> <PUBCHEM_OPENEYE_CAN_SMILES>
CC1CCC2C(C3=C(CN2C1)C4CC5C(C4CC3)CC(C6C5(CCC(C6)O)C)O)C

> <PUBCHEM_OPENEYE_ISO_SMILES>
C[C@@H]1CC[C@H]2[C@@H](C3=C(CN2C1)[C@@H]4C[C@H]5[C@H]([C@@H]4CC3)C[C@H]([C@@H]6[C@@]5(CC[C@@H](C6)O)C)O)C

> <PUBCHEM_CACTVS_TPSA>
43.7

> <PUBCHEM_MONOISOTOPIC_WEIGHT>
413.329

> <PUBCHEM_TOTAL_CHARGE>
0

> <PUBCHEM_HEAVY_ATOM_COUNT>
30

> <PUBCHEM_ATOM_DEF_STEREO_COUNT>
11

> <PUBCHEM_ATOM_UDEF_STEREO_COUNT>
0

> <PUBCHEM_BOND_DEF_STEREO_COUNT>
0

> <PUBCHEM_BOND_UDEF_STEREO_COUNT>
0

> <PUBCHEM_ISOTOPIC_ATOM_COUNT>
0

> <PUBCHEM_COMPONENT_COUNT>
1

> <PUBCHEM_CACTVS_TAUTO_COUNT>
1

> <PUBCHEM_COORDINATE_TYPE>
1
5
255

> <PUBCHEM_BONDANNOTATIONS>
12  1  6
10  37  5
21  2  6
23  27  5
24  58  5
28  30  5
4  31  5
5  32  6
6  17  6
7  33  5
8  34  5

$$$$
