5487843
  -OEChem-12071809322D

  3  0  0     0  0  0  0  0  0999 V2000
    0.0000    1.2500    0.0000 Cu  0  0  0  0  0  0  0  0  0  0  0  0
    2.5000    0.0000    0.0000 Cu  0  0  0  0  0  0  0  0  0  0  0  0
    2.5000    2.5000    0.0000 Cu  0  0  0  0  0  0  0  0  0  0  0  0
M  END
> <PUBCHEM_COMPOUND_CID>
5487843

> <PUBCHEM_COMPOUND_CANONICALIZED>
1

> <PUBCHEM_CACTVS_COMPLEXITY>
0

> <PUBCHEM_CACTVS_HBOND_ACCEPTOR>
0

> <PUBCHEM_CACTVS_HBOND_DONOR>
0

> <PUBCHEM_CACTVS_ROTATABLE_BOND>
0

> <PUBCHEM_CACTVS_SUBSKEYS>
AAADcQAAAAAAAAAEAAAAAAAAAAAAAAAAAAAAAAAAAAAAAAAAAAAAAAAAAAAAAAAAAAAAAAAAAAAAAAAAAAAAAAAAAAAAAAAAAAAAAAAAAAAAAAAAAAAAAAAAAAAAAAAAAAAAAAAAAAAAAAAAAAAAAAAAAA==

> <PUBCHEM_IUPAC_OPENEYE_NAME>
copper

> <PUBCHEM_IUPAC_CAS_NAME>
copper

> <PUBCHEM_IUPAC_NAME>
copper

> <PUBCHEM_IUPAC_SYSTEMATIC_NAME>
copper

> <PUBCHEM_IUPAC_TRADITIONAL_NAME>
copper

> <PUBCHEM_IUPAC_INCHI>
InChI=1S/3Cu

> <PUBCHEM_IUPAC_INCHIKEY>
FRVMKTLTJFPELD-UHFFFAOYSA-N

> <PUBCHEM_EXACT_MASS>
190.787

> <PUBCHEM_MOLECULAR_FORMULA>
Cu3

> <PUBCHEM_MOLECULAR_WEIGHT>
190.638

> <PUBCHEM_OPENEYE_CAN_SMILES>
[Cu].[Cu].[Cu]

> <PUBCHEM_OPENEYE_ISO_SMILES>
[Cu].[Cu].[Cu]

> <PUBCHEM_CACTVS_TPSA>
0

> <PUBCHEM_MONOISOTOPIC_WEIGHT>
188.789

> <PUBCHEM_TOTAL_CHARGE>
0

> <PUBCHEM_HEAVY_ATOM_COUNT>
3

> <PUBCHEM_ATOM_DEF_STEREO_COUNT>
0

> <PUBCHEM_ATOM_UDEF_STEREO_COUNT>
0

> <PUBCHEM_BOND_DEF_STEREO_COUNT>
0

> <PUBCHEM_BOND_UDEF_STEREO_COUNT>
0

> <PUBCHEM_ISOTOPIC_ATOM_COUNT>
0

> <PUBCHEM_COMPONENT_COUNT>
3

> <PUBCHEM_CACTVS_TAUTO_COUNT>
1

> <PUBCHEM_COORDINATE_TYPE>
1
5
255

$$$$
