105563
  -OEChem-12071809322D

 52 51  0     1  0  0  0  0  0999 V2000
   13.2583    0.0950    0.0000 O   0  0  0  0  0  0  0  0  0  0  0  0
   12.3923   -1.4050    0.0000 O   0  0  0  0  0  0  0  0  0  0  0  0
   14.9904    1.0950    0.0000 O   0  0  0  0  0  0  0  0  0  0  0  0
   16.7224    0.0950    0.0000 O   0  0  0  0  0  0  0  0  0  0  0  0
    7.1962   -0.4050    0.0000 C   0  0  0  0  0  0  0  0  0  0  0  0
    8.0622    0.0950    0.0000 C   0  0  0  0  0  0  0  0  0  0  0  0
    6.3301    0.0950    0.0000 C   0  0  0  0  0  0  0  0  0  0  0  0
    8.9282   -0.4050    0.0000 C   0  0  0  0  0  0  0  0  0  0  0  0
    5.4641   -0.4050    0.0000 C   0  0  0  0  0  0  0  0  0  0  0  0
    9.7942    0.0950    0.0000 C   0  0  0  0  0  0  0  0  0  0  0  0
    4.5981    0.0950    0.0000 C   0  0  0  0  0  0  0  0  0  0  0  0
    3.7320   -0.4050    0.0000 C   0  0  0  0  0  0  0  0  0  0  0  0
   10.6603   -0.4050    0.0000 C   0  0  0  0  0  0  0  0  0  0  0  0
    2.8660    0.0950    0.0000 C   0  0  0  0  0  0  0  0  0  0  0  0
   11.5263    0.0950    0.0000 C   0  0  0  0  0  0  0  0  0  0  0  0
    2.0000   -0.4050    0.0000 C   0  0  0  0  0  0  0  0  0  0  0  0
   12.3923   -0.4050    0.0000 C   0  0  0  0  0  0  0  0  0  0  0  0
   14.1244   -0.4050    0.0000 C   0  0  0  0  0  0  0  0  0  0  0  0
   14.9904    0.0950    0.0000 C   0  0  3  0  0  0  0  0  0  0  0  0
   15.8564   -0.4050    0.0000 C   0  0  0  0  0  0  0  0  0  0  0  0
    6.7976   -0.8799    0.0000 H   0  0  0  0  0  0  0  0  0  0  0  0
    7.5947   -0.8799    0.0000 H   0  0  0  0  0  0  0  0  0  0  0  0
    8.4607    0.5699    0.0000 H   0  0  0  0  0  0  0  0  0  0  0  0
    7.6636    0.5699    0.0000 H   0  0  0  0  0  0  0  0  0  0  0  0
    6.7287    0.5699    0.0000 H   0  0  0  0  0  0  0  0  0  0  0  0
    5.9316    0.5699    0.0000 H   0  0  0  0  0  0  0  0  0  0  0  0
    8.5297   -0.8799    0.0000 H   0  0  0  0  0  0  0  0  0  0  0  0
    9.3267   -0.8799    0.0000 H   0  0  0  0  0  0  0  0  0  0  0  0
    5.0656   -0.8799    0.0000 H   0  0  0  0  0  0  0  0  0  0  0  0
    5.8626   -0.8799    0.0000 H   0  0  0  0  0  0  0  0  0  0  0  0
   10.1928    0.5699    0.0000 H   0  0  0  0  0  0  0  0  0  0  0  0
    9.3957    0.5699    0.0000 H   0  0  0  0  0  0  0  0  0  0  0  0
    4.9966    0.5699    0.0000 H   0  0  0  0  0  0  0  0  0  0  0  0
    4.1996    0.5699    0.0000 H   0  0  0  0  0  0  0  0  0  0  0  0
    3.3335   -0.8799    0.0000 H   0  0  0  0  0  0  0  0  0  0  0  0
    4.1306   -0.8799    0.0000 H   0  0  0  0  0  0  0  0  0  0  0  0
   10.2617   -0.8799    0.0000 H   0  0  0  0  0  0  0  0  0  0  0  0
   11.0588   -0.8799    0.0000 H   0  0  0  0  0  0  0  0  0  0  0  0
    3.2646    0.5699    0.0000 H   0  0  0  0  0  0  0  0  0  0  0  0
    2.4675    0.5699    0.0000 H   0  0  0  0  0  0  0  0  0  0  0  0
   11.9248    0.5699    0.0000 H   0  0  0  0  0  0  0  0  0  0  0  0
   11.1278    0.5699    0.0000 H   0  0  0  0  0  0  0  0  0  0  0  0
    1.6900    0.1319    0.0000 H   0  0  0  0  0  0  0  0  0  0  0  0
    1.4631   -0.7150    0.0000 H   0  0  0  0  0  0  0  0  0  0  0  0
    2.3100   -0.9419    0.0000 H   0  0  0  0  0  0  0  0  0  0  0  0
   13.7258   -0.8799    0.0000 H   0  0  0  0  0  0  0  0  0  0  0  0
   14.5229   -0.8799    0.0000 H   0  0  0  0  0  0  0  0  0  0  0  0
   15.7265    0.5200    0.0000 H   0  0  0  0  0  0  0  0  0  0  0  0
   15.4579   -0.8799    0.0000 H   0  0  0  0  0  0  0  0  0  0  0  0
   16.2549   -0.8799    0.0000 H   0  0  0  0  0  0  0  0  0  0  0  0
   15.5273    1.4050    0.0000 H   0  0  0  0  0  0  0  0  0  0  0  0
   17.2594   -0.2150    0.0000 H   0  0  0  0  0  0  0  0  0  0  0  0
  1 17  1  0  0  0  0
  1 18  1  0  0  0  0
  2 17  2  0  0  0  0
  3 19  1  0  0  0  0
  3 51  1  0  0  0  0
  4 20  1  0  0  0  0
  4 52  1  0  0  0  0
  5  6  1  0  0  0  0
  5  7  1  0  0  0  0
  5 21  1  0  0  0  0
  5 22  1  0  0  0  0
  6  8  1  0  0  0  0
  6 23  1  0  0  0  0
  6 24  1  0  0  0  0
  7  9  1  0  0  0  0
  7 25  1  0  0  0  0
  7 26  1  0  0  0  0
  8 10  1  0  0  0  0
  8 27  1  0  0  0  0
  8 28  1  0  0  0  0
  9 11  1  0  0  0  0
  9 29  1  0  0  0  0
  9 30  1  0  0  0  0
 10 13  1  0  0  0  0
 10 31  1  0  0  0  0
 10 32  1  0  0  0  0
 11 12  1  0  0  0  0
 11 33  1  0  0  0  0
 11 34  1  0  0  0  0
 12 14  1  0  0  0  0
 12 35  1  0  0  0  0
 12 36  1  0  0  0  0
 13 15  1  0  0  0  0
 13 37  1  0  0  0  0
 13 38  1  0  0  0  0
 14 16  1  0  0  0  0
 14 39  1  0  0  0  0
 14 40  1  0  0  0  0
 15 17  1  0  0  0  0
 15 41  1  0  0  0  0
 15 42  1  0  0  0  0
 16 43  1  0  0  0  0
 16 44  1  0  0  0  0
 16 45  1  0  0  0  0
 18 19  1  0  0  0  0
 18 46  1  0  0  0  0
 18 47  1  0  0  0  0
 19 20  1  0  0  0  0
 19 48  1  0  0  0  0
 20 49  1  0  0  0  0
 20 50  1  0  0  0  0
M  END
> <PUBCHEM_COMPOUND_CID>
105563

> <PUBCHEM_COMPOUND_CANONICALIZED>
1

> <PUBCHEM_CACTVS_COMPLEXITY>
219

> <PUBCHEM_CACTVS_HBOND_ACCEPTOR>
4

> <PUBCHEM_CACTVS_HBOND_DONOR>
2

> <PUBCHEM_CACTVS_ROTATABLE_BOND>
15

> <PUBCHEM_CACTVS_SUBSKEYS>
AAADcfB4OAAAAAAAAAAAAAAAAAAAAAAAAAAAAAAAAAAAAAAAAAAAGgAACAAACBSggAICCAAABgAIAACQCAAAAAAAAAAAAAEAAAABEBIAAAACQAAFAAADAAGIyKCAAAAAAAAAAAAAAAAAAAAAAAAAAAAAAA==

> <PUBCHEM_IUPAC_OPENEYE_NAME>
2,3-dihydroxypropyl tridecanoate

> <PUBCHEM_IUPAC_CAS_NAME>
tridecanoic acid 2,3-dihydroxypropyl ester

> <PUBCHEM_IUPAC_NAME>
2,3-dihydroxypropyl tridecanoate

> <PUBCHEM_IUPAC_SYSTEMATIC_NAME>
2,3-bis(oxidanyl)propyl tridecanoate

> <PUBCHEM_IUPAC_TRADITIONAL_NAME>
tridecanoic acid glyceryl ester

> <PUBCHEM_IUPAC_INCHI>
InChI=1S/C16H32O4/c1-2-3-4-5-6-7-8-9-10-11-12-16(19)20-14-15(18)13-17/h15,17-18H,2-14H2,1H3

> <PUBCHEM_IUPAC_INCHIKEY>
CLRCAFAXMVNJRH-UHFFFAOYSA-N

> <PUBCHEM_XLOGP3>
4.7

> <PUBCHEM_EXACT_MASS>
288.23

> <PUBCHEM_MOLECULAR_FORMULA>
C16H32O4

> <PUBCHEM_MOLECULAR_WEIGHT>
288.428

> <PUBCHEM_OPENEYE_CAN_SMILES>
CCCCCCCCCCCCC(=O)OCC(CO)O

> <PUBCHEM_OPENEYE_ISO_SMILES>
CCCCCCCCCCCCC(=O)OCC(CO)O

> <PUBCHEM_CACTVS_TPSA>
66.8

> <PUBCHEM_MONOISOTOPIC_WEIGHT>
288.23

> <PUBCHEM_TOTAL_CHARGE>
0

> <PUBCHEM_HEAVY_ATOM_COUNT>
20

> <PUBCHEM_ATOM_DEF_STEREO_COUNT>
0

> <PUBCHEM_ATOM_UDEF_STEREO_COUNT>
1

> <PUBCHEM_BOND_DEF_STEREO_COUNT>
0

> <PUBCHEM_BOND_UDEF_STEREO_COUNT>
0

> <PUBCHEM_ISOTOPIC_ATOM_COUNT>
0

> <PUBCHEM_COMPONENT_COUNT>
1

> <PUBCHEM_CACTVS_TAUTO_COUNT>
1

> <PUBCHEM_COORDINATE_TYPE>
1
5
255

> <PUBCHEM_BONDANNOTATIONS>
19  48  3

$$$$
