10772107
  -OEChem-12071809222D

144150  0     1  0  0  0  0  0999 V2000
    6.4580    0.9985    0.0000 O   0  0  0  0  0  0  0  0  0  0  0  0
    8.1608   -5.1917    0.0000 O   0  0  0  0  0  0  0  0  0  0  0  0
    7.0541    3.4613    0.0000 O   0  0  0  0  0  0  0  0  0  0  0  0
    8.3388    4.6230    0.0000 O   0  0  0  0  0  0  0  0  0  0  0  0
    6.4287   -5.1917    0.0000 O   0  0  0  0  0  0  0  0  0  0  0  0
    5.7127    4.9447    0.0000 O   0  0  0  0  0  0  0  0  0  0  0  0
    8.1608   -7.1917    0.0000 O   0  0  0  0  0  0  0  0  0  0  0  0
    6.3266    6.8481    0.0000 O   0  0  0  0  0  0  0  0  0  0  0  0
    6.4287   -8.1917    0.0000 O   0  0  0  0  0  0  0  0  0  0  0  0
    8.2821    7.2681    0.0000 O   0  0  0  0  0  0  0  0  0  0  0  0
    4.6967   -7.1917    0.0000 O   0  0  0  0  0  0  0  0  0  0  0  0
    9.9305    6.7364    0.0000 O   0  0  0  0  0  0  0  0  0  0  0  0
    5.3490    6.6382    0.0000 O   0  0  0  0  0  0  0  0  0  0  0  0
    3.8306   -5.6917    0.0000 O   0  0  0  0  0  0  0  0  0  0  0  0
    3.7572    4.5247    0.0000 O   0  0  0  0  0  0  0  0  0  0  0  0
    2.4158    6.0082    0.0000 O   0  0  0  0  0  0  0  0  0  0  0  0
    3.0298    7.9116    0.0000 O   0  0  0  0  0  0  0  0  0  0  0  0
    9.0618   -0.4914    0.0000 C   0  0  1  0  0  0  0  0  0  0  0  0
    9.0580    0.5086    0.0000 C   0  0  1  0  0  0  0  0  0  0  0  0
    8.1977   -0.9948    0.0000 C   0  0  1  0  0  0  0  0  0  0  0  0
    8.1857   -2.0363    0.0000 C   0  0  2  0  0  0  0  0  0  0  0  0
    8.1900    1.0052    0.0000 C   0  0  1  0  0  0  0  0  0  0  0  0
    9.0858   -2.5606    0.0000 C   0  0  1  0  0  0  0  0  0  0  0  0
    9.9738   -0.9948    0.0000 C   0  0  0  0  0  0  0  0  0  0  0  0
    8.3955    1.9778    0.0000 C   0  0  2  0  0  0  0  0  0  0  0  0
    7.3298   -0.4981    0.0000 C   0  0  0  0  0  0  0  0  0  0  0  0
    7.3259    0.5019    0.0000 C   0  0  1  0  0  0  0  0  0  0  0  0
    9.7924    1.1785    0.0000 C   0  0  0  0  0  0  0  0  0  0  0  0
    9.9858   -2.0363    0.0000 C   0  0  0  0  0  0  0  0  0  0  0  0
    9.0983   -3.6456    0.0000 C   0  0  0  0  0  0  0  0  0  0  0  0
    9.3838    2.0847    0.0000 C   0  0  0  0  0  0  0  0  0  0  0  0
    7.2358   -2.5606    0.0000 C   0  0  0  0  0  0  0  0  0  0  0  0
   10.0460   -0.3140    0.0000 C   0  0  0  0  0  0  0  0  0  0  0  0
   10.0435    0.3387    0.0000 C   0  0  0  0  0  0  0  0  0  0  0  0
    7.3216   -1.5330    0.0000 C   0  0  0  0  0  0  0  0  0  0  0  0
    8.1608   -4.1917    0.0000 C   0  0  2  0  0  0  0  0  0  0  0  0
    7.7248    2.7196    0.0000 C   0  0  2  0  0  0  0  0  0  0  0  0
    7.2232   -3.6456    0.0000 C   0  0  0  0  0  0  0  0  0  0  0  0
   10.0983   -3.6378    0.0000 C   0  0  0  0  0  0  0  0  0  0  0  0
    9.6050   -4.5077    0.0000 C   0  0  0  0  0  0  0  0  0  0  0  0
    8.4665    3.3903    0.0000 C   0  0  0  0  0  0  0  0  0  0  0  0
    6.9831    2.0488    0.0000 C   0  0  0  0  0  0  0  0  0  0  0  0
    9.4182    3.0833    0.0000 C   0  0  0  0  0  0  0  0  0  0  0  0
    7.2948   -5.6917    0.0000 C   0  0  2  0  0  0  0  0  0  0  0  0
    7.3611    4.4130    0.0000 C   0  0  2  0  0  0  0  0  0  0  0  0
    6.6904    5.1547    0.0000 C   0  0  1  0  0  0  0  0  0  0  0  0
    7.2948   -6.6917    0.0000 C   0  0  1  0  0  0  0  0  0  0  0  0
   10.1599    3.7540    0.0000 C   0  0  0  0  0  0  0  0  0  0  0  0
    6.9974    6.1064    0.0000 C   0  0  2  0  0  0  0  0  0  0  0  0
    6.4287   -7.1917    0.0000 C   0  0  2  0  0  0  0  0  0  0  0  0
    8.6458    5.5747    0.0000 C   0  0  1  0  0  0  0  0  0  0  0  0
    5.5627   -5.6917    0.0000 C   0  0  1  0  0  0  0  0  0  0  0  0
    7.9751    6.3164    0.0000 C   0  0  1  0  0  0  0  0  0  0  0  0
    5.5627   -6.6917    0.0000 C   0  0  1  0  0  0  0  0  0  0  0  0
   11.1116    3.4470    0.0000 C   0  0  0  0  0  0  0  0  0  0  0  0
    9.6235    5.7847    0.0000 C   0  0  0  0  0  0  0  0  0  0  0  0
    4.6967   -5.1917    0.0000 C   0  0  0  0  0  0  0  0  0  0  0  0
    5.0420    5.6864    0.0000 C   0  0  2  0  0  0  0  0  0  0  0  0
   11.8534    4.1177    0.0000 C   0  0  0  0  0  0  0  0  0  0  0  0
   11.3216    2.4693    0.0000 C   0  0  0  0  0  0  0  0  0  0  0  0
    4.0642    5.4764    0.0000 C   0  0  1  0  0  0  0  0  0  0  0  0
    3.3935    6.2182    0.0000 C   0  0  2  0  0  0  0  0  0  0  0  0
    4.6782    7.3799    0.0000 C   0  0  0  0  0  0  0  0  0  0  0  0
    3.7005    7.1699    0.0000 C   0  0  2  0  0  0  0  0  0  0  0  0
    8.9322   -1.4226    0.0000 H   0  0  0  0  0  0  0  0  0  0  0  0
    7.5011    1.5031    0.0000 H   0  0  0  0  0  0  0  0  0  0  0  0
    9.8251   -2.9799    0.0000 H   0  0  0  0  0  0  0  0  0  0  0  0
   10.5858   -1.0938    0.0000 H   0  0  0  0  0  0  0  0  0  0  0  0
   10.1761   -0.4087    0.0000 H   0  0  0  0  0  0  0  0  0  0  0  0
    8.6981    2.7722    0.0000 H   0  0  0  0  0  0  0  0  0  0  0  0
    6.7188   -0.3928    0.0000 H   0  0  0  0  0  0  0  0  0  0  0  0
    7.1200   -1.0815    0.0000 H   0  0  0  0  0  0  0  0  0  0  0  0
    6.7902    0.1898    0.0000 H   0  0  0  0  0  0  0  0  0  0  0  0
   10.1598    0.6790    0.0000 H   0  0  0  0  0  0  0  0  0  0  0  0
   10.3277    1.4913    0.0000 H   0  0  0  0  0  0  0  0  0  0  0  0
   10.2016   -2.6176    0.0000 H   0  0  0  0  0  0  0  0  0  0  0  0
   10.5954   -1.9232    0.0000 H   0  0  0  0  0  0  0  0  0  0  0  0
    9.9727    2.2787    0.0000 H   0  0  0  0  0  0  0  0  0  0  0  0
    9.2527    2.6907    0.0000 H   0  0  0  0  0  0  0  0  0  0  0  0
    7.0335   -1.9746    0.0000 H   0  0  0  0  0  0  0  0  0  0  0  0
    6.6237   -2.6596    0.0000 H   0  0  0  0  0  0  0  0  0  0  0  0
   10.1560   -0.9242    0.0000 H   0  0  0  0  0  0  0  0  0  0  0  0
   10.6561   -0.2040    0.0000 H   0  0  0  0  0  0  0  0  0  0  0  0
    9.9360    0.2962    0.0000 H   0  0  0  0  0  0  0  0  0  0  0  0
    9.9381   -0.2723    0.0000 H   0  0  0  0  0  0  0  0  0  0  0  0
   10.6544    0.2334    0.0000 H   0  0  0  0  0  0  0  0  0  0  0  0
   10.1488    0.9497    0.0000 H   0  0  0  0  0  0  0  0  0  0  0  0
    7.6337   -0.9973    0.0000 H   0  0  0  0  0  0  0  0  0  0  0  0
    6.7859   -1.2209    0.0000 H   0  0  0  0  0  0  0  0  0  0  0  0
    7.0095   -2.0687    0.0000 H   0  0  0  0  0  0  0  0  0  0  0  0
    7.6232   -4.5006    0.0000 H   0  0  0  0  0  0  0  0  0  0  0  0
    6.6136   -3.5324    0.0000 H   0  0  0  0  0  0  0  0  0  0  0  0
    7.0074   -4.2268    0.0000 H   0  0  0  0  0  0  0  0  0  0  0  0
   10.1031   -4.2578    0.0000 H   0  0  0  0  0  0  0  0  0  0  0  0
   10.7183   -3.6331    0.0000 H   0  0  0  0  0  0  0  0  0  0  0  0
   10.0935   -3.0179    0.0000 H   0  0  0  0  0  0  0  0  0  0  0  0
    9.0704   -4.8218    0.0000 H   0  0  0  0  0  0  0  0  0  0  0  0
    9.9191   -5.0422    0.0000 H   0  0  0  0  0  0  0  0  0  0  0  0
   10.1395   -4.1936    0.0000 H   0  0  0  0  0  0  0  0  0  0  0  0
    5.9223    0.6865    0.0000 H   0  0  0  0  0  0  0  0  0  0  0  0
    8.7564    3.9383    0.0000 H   0  0  0  0  0  0  0  0  0  0  0  0
    7.9771    3.7709    0.0000 H   0  0  0  0  0  0  0  0  0  0  0  0
    6.5672    2.5087    0.0000 H   0  0  0  0  0  0  0  0  0  0  0  0
    6.5232    1.6330    0.0000 H   0  0  0  0  0  0  0  0  0  0  0  0
    7.3989    1.5890    0.0000 H   0  0  0  0  0  0  0  0  0  0  0  0
    9.1283    2.5352    0.0000 H   0  0  0  0  0  0  0  0  0  0  0  0
    9.9076    2.7026    0.0000 H   0  0  0  0  0  0  0  0  0  0  0  0
    7.2948   -5.0717    0.0000 H   0  0  0  0  0  0  0  0  0  0  0  0
    6.7549    4.2828    0.0000 H   0  0  0  0  0  0  0  0  0  0  0  0
    6.2745    5.6146    0.0000 H   0  0  0  0  0  0  0  0  0  0  0  0
    7.2948   -7.3117    0.0000 H   0  0  0  0  0  0  0  0  0  0  0  0
   10.0297    4.3601    0.0000 H   0  0  0  0  0  0  0  0  0  0  0  0
    7.1877    6.6965    0.0000 H   0  0  0  0  0  0  0  0  0  0  0  0
    5.8918   -7.5017    0.0000 H   0  0  0  0  0  0  0  0  0  0  0  0
    9.0616    5.1148    0.0000 H   0  0  0  0  0  0  0  0  0  0  0  0
    5.5627   -5.0717    0.0000 H   0  0  0  0  0  0  0  0  0  0  0  0
    8.5812    6.4466    0.0000 H   0  0  0  0  0  0  0  0  0  0  0  0
    5.0258   -6.3817    0.0000 H   0  0  0  0  0  0  0  0  0  0  0  0
    8.1608   -7.8117    0.0000 H   0  0  0  0  0  0  0  0  0  0  0  0
    9.6464    5.1651    0.0000 H   0  0  0  0  0  0  0  0  0  0  0  0
   10.2376    5.6997    0.0000 H   0  0  0  0  0  0  0  0  0  0  0  0
    5.0952   -4.7167    0.0000 H   0  0  0  0  0  0  0  0  0  0  0  0
    4.2981   -4.7167    0.0000 H   0  0  0  0  0  0  0  0  0  0  0  0
    4.8516    5.0964    0.0000 H   0  0  0  0  0  0  0  0  0  0  0  0
    6.5170    7.4382    0.0000 H   0  0  0  0  0  0  0  0  0  0  0  0
    5.8918   -8.5017    0.0000 H   0  0  0  0  0  0  0  0  0  0  0  0
   12.2692    3.6578    0.0000 H   0  0  0  0  0  0  0  0  0  0  0  0
   12.3132    4.5335    0.0000 H   0  0  0  0  0  0  0  0  0  0  0  0
   11.4375    4.5775    0.0000 H   0  0  0  0  0  0  0  0  0  0  0  0
   10.7155    2.3391    0.0000 H   0  0  0  0  0  0  0  0  0  0  0  0
   11.4518    1.8631    0.0000 H   0  0  0  0  0  0  0  0  0  0  0  0
   11.9278    2.5995    0.0000 H   0  0  0  0  0  0  0  0  0  0  0  0
    7.8662    7.7280    0.0000 H   0  0  0  0  0  0  0  0  0  0  0  0
    4.6967   -7.8117    0.0000 H   0  0  0  0  0  0  0  0  0  0  0  0
    3.4581    5.3463    0.0000 H   0  0  0  0  0  0  0  0  0  0  0  0
   10.5366    6.8666    0.0000 H   0  0  0  0  0  0  0  0  0  0  0  0
    3.2937   -5.3817    0.0000 H   0  0  0  0  0  0  0  0  0  0  0  0
    2.9777    6.6780    0.0000 H   0  0  0  0  0  0  0  0  0  0  0  0
    5.2033    7.7095    0.0000 H   0  0  0  0  0  0  0  0  0  0  0  0
    4.4448    7.9542    0.0000 H   0  0  0  0  0  0  0  0  0  0  0  0
    3.8909    7.7599    0.0000 H   0  0  0  0  0  0  0  0  0  0  0  0
    3.1511    4.3945    0.0000 H   0  0  0  0  0  0  0  0  0  0  0  0
    2.0000    6.4680    0.0000 H   0  0  0  0  0  0  0  0  0  0  0  0
    3.2202    8.5017    0.0000 H   0  0  0  0  0  0  0  0  0  0  0  0
 27  1  1  1  0  0  0
  1100  1  0  0  0  0
 36  2  1  1  0  0  0
 44  2  1  1  0  0  0
 37  3  1  1  0  0  0
 45  3  1  1  0  0  0
  4 45  1  0  0  0  0
  4 51  1  0  0  0  0
  5 44  1  0  0  0  0
  5 52  1  0  0  0  0
 46  6  1  6  0  0  0
 58  6  1  1  0  0  0
 47  7  1  6  0  0  0
  7119  1  0  0  0  0
 49  8  1  1  0  0  0
  8125  1  0  0  0  0
 50  9  1  1  0  0  0
  9126  1  0  0  0  0
 53 10  1  6  0  0  0
 10133  1  0  0  0  0
 54 11  1  6  0  0  0
 11134  1  0  0  0  0
 12 56  1  0  0  0  0
 12136  1  0  0  0  0
 13 58  1  0  0  0  0
 13 63  1  0  0  0  0
 14 57  1  0  0  0  0
 14137  1  0  0  0  0
 61 15  1  6  0  0  0
 15142  1  0  0  0  0
 62 16  1  1  0  0  0
 16143  1  0  0  0  0
 64 17  1  1  0  0  0
 17144  1  0  0  0  0
 18 19  1  0  0  0  0
 18 20  1  0  0  0  0
 18 24  1  0  0  0  0
 18 33  1  1  0  0  0
 19 22  1  0  0  0  0
 19 28  1  0  0  0  0
 19 34  1  6  0  0  0
 20 21  1  0  0  0  0
 20 26  1  0  0  0  0
 20 65  1  6  0  0  0
 21 23  1  0  0  0  0
 21 32  1  0  0  0  0
 21 35  1  1  0  0  0
 22 25  1  0  0  0  0
 22 27  1  0  0  0  0
 22 66  1  1  0  0  0
 23 29  1  0  0  0  0
 23 30  1  0  0  0  0
 23 67  1  6  0  0  0
 24 29  1  0  0  0  0
 24 68  1  0  0  0  0
 24 69  1  0  0  0  0
 25 31  1  0  0  0  0
 25 37  1  0  0  0  0
 25 70  1  6  0  0  0
 26 27  1  0  0  0  0
 26 71  1  0  0  0  0
 26 72  1  0  0  0  0
 27 73  1  0  0  0  0
 28 31  1  0  0  0  0
 28 74  1  0  0  0  0
 28 75  1  0  0  0  0
 29 76  1  0  0  0  0
 29 77  1  0  0  0  0
 30 36  1  0  0  0  0
 30 39  1  0  0  0  0
 30 40  1  0  0  0  0
 31 78  1  0  0  0  0
 31 79  1  0  0  0  0
 32 38  1  0  0  0  0
 32 80  1  0  0  0  0
 32 81  1  0  0  0  0
 33 82  1  0  0  0  0
 33 83  1  0  0  0  0
 33 84  1  0  0  0  0
 34 85  1  0  0  0  0
 34 86  1  0  0  0  0
 34 87  1  0  0  0  0
 35 88  1  0  0  0  0
 35 89  1  0  0  0  0
 35 90  1  0  0  0  0
 36 38  1  0  0  0  0
 36 91  1  0  0  0  0
 37 41  1  0  0  0  0
 37 42  1  0  0  0  0
 38 92  1  0  0  0  0
 38 93  1  0  0  0  0
 39 94  1  0  0  0  0
 39 95  1  0  0  0  0
 39 96  1  0  0  0  0
 40 97  1  0  0  0  0
 40 98  1  0  0  0  0
 40 99  1  0  0  0  0
 41 43  1  0  0  0  0
 41101  1  0  0  0  0
 41102  1  0  0  0  0
 42103  1  0  0  0  0
 42104  1  0  0  0  0
 42105  1  0  0  0  0
 43 48  1  0  0  0  0
 43106  1  0  0  0  0
 43107  1  0  0  0  0
 44 47  1  0  0  0  0
 44108  1  0  0  0  0
 45 46  1  0  0  0  0
 45109  1  0  0  0  0
 46 49  1  0  0  0  0
 46110  1  0  0  0  0
 47 50  1  0  0  0  0
 47111  1  0  0  0  0
 48 55  2  0  0  0  0
 48112  1  0  0  0  0
 49 53  1  0  0  0  0
 49113  1  0  0  0  0
 50 54  1  0  0  0  0
 50114  1  0  0  0  0
 51 53  1  0  0  0  0
 51 56  1  1  0  0  0
 51115  1  0  0  0  0
 52 54  1  0  0  0  0
 52 57  1  1  0  0  0
 52116  1  0  0  0  0
 53117  1  0  0  0  0
 54118  1  0  0  0  0
 55 59  1  0  0  0  0
 55 60  1  0  0  0  0
 56120  1  0  0  0  0
 56121  1  0  0  0  0
 57122  1  0  0  0  0
 57123  1  0  0  0  0
 58 61  1  0  0  0  0
 58124  1  0  0  0  0
 59127  1  0  0  0  0
 59128  1  0  0  0  0
 59129  1  0  0  0  0
 60130  1  0  0  0  0
 60131  1  0  0  0  0
 60132  1  0  0  0  0
 61 62  1  0  0  0  0
 61135  1  0  0  0  0
 62 64  1  0  0  0  0
 62138  1  0  0  0  0
 63 64  1  0  0  0  0
 63139  1  0  0  0  0
 63140  1  0  0  0  0
 64141  1  0  0  0  0
M  END
> <PUBCHEM_COMPOUND_CID>
10772107

> <PUBCHEM_COMPOUND_CANONICALIZED>
1

> <PUBCHEM_CACTVS_COMPLEXITY>
1630

> <PUBCHEM_CACTVS_HBOND_ACCEPTOR>
17

> <PUBCHEM_CACTVS_HBOND_DONOR>
11

> <PUBCHEM_CACTVS_ROTATABLE_BOND>
12

> <PUBCHEM_CACTVS_SUBSKEYS>
AAADcfB8PgAAAAAAAAAAAAAAAAAAAYAAAAA0aNECAAAAAGDAAAAAGgAACAAAD1SwgAMCCAAABgCAAiBCAAAAAAAgAAAACAAAAAgREAIAAQAiQAAFgAAPAAPA4PwPgAAAAAAAAADAAAYAADAAAQAACAAAAA==

> <PUBCHEM_IUPAC_OPENEYE_NAME>
(2R,3R,4S,5S,6R)-2-[[(3S,5R,8R,9R,10R,12R,13R,14R,17S)-17-[(1S)-1-[(2S,3R,4S,5S,6R)-4,5-dihydroxy-6-(hydroxymethyl)-3-[(2S,3R,4S,5S)-3,4,5-trihydroxytetrahydropyran-2-yl]oxy-tetrahydropyran-2-yl]oxy-1,5-dimethyl-hex-4-enyl]-12-hydroxy-4,4,8,10,14-pentamethyl-2,3,5,6,7,9,11,12,13,15,16,17-dodecahydro-1H-cyclopenta[a]phenanthren-3-yl]oxy]-6-(hydroxymethyl)tetrahydropyran-3,4,5-triol

> <PUBCHEM_IUPAC_CAS_NAME>
(2R,3R,4S,5S,6R)-2-[[(3S,5R,8R,9R,10R,12R,13R,14R,17S)-17-[(2S)-2-[[(2S,3R,4S,5S,6R)-4,5-dihydroxy-6-(hydroxymethyl)-3-[[(2S,3R,4S,5S)-3,4,5-trihydroxy-2-oxanyl]oxy]-2-oxanyl]oxy]-6-methylhept-5-en-2-yl]-12-hydroxy-4,4,8,10,14-pentamethyl-2,3,5,6,7,9,11,12,13,15,16,17-dodecahydro-1H-cyclopenta[a]phenanthren-3-yl]oxy]-6-(hydroxymethyl)oxane-3,4,5-triol

> <PUBCHEM_IUPAC_NAME>
(2R,3R,4S,5S,6R)-2-[[(3S,5R,8R,9R,10R,12R,13R,14R,17S)-17-[(2S)-2-[(2S,3R,4S,5S,6R)-4,5-dihydroxy-6-(hydroxymethyl)-3-[(2S,3R,4S,5S)-3,4,5-trihydroxyoxan-2-yl]oxyoxan-2-yl]oxy-6-methylhept-5-en-2-yl]-12-hydroxy-4,4,8,10,14-pentamethyl-2,3,5,6,7,9,11,12,13,15,16,17-dodecahydro-1H-cyclopenta[a]phenanthren-3-yl]oxy]-6-(hydroxymethyl)oxane-3,4,5-triol

> <PUBCHEM_IUPAC_SYSTEMATIC_NAME>
(2R,3S,4S,5R,6R)-2-(hydroxymethyl)-6-[[(3S,5R,8R,9R,10R,12R,13R,14R,17S)-17-[(2S)-2-[(2S,3R,4S,5S,6R)-6-(hydroxymethyl)-4,5-bis(oxidanyl)-3-[(2S,3R,4S,5S)-3,4,5-tris(oxidanyl)oxan-2-yl]oxy-oxan-2-yl]oxy-6-methyl-hept-5-en-2-yl]-4,4,8,10,14-pentamethyl-12-oxidanyl-2,3,5,6,7,9,11,12,13,15,16,17-dodecahydro-1H-cyclopenta[a]phenanthren-3-yl]oxy]oxane-3,4,5-triol

> <PUBCHEM_IUPAC_TRADITIONAL_NAME>
(2R,3R,4S,5S,6R)-2-[[(3S,5R,8R,9R,10R,12R,13R,14R,17S)-17-[(1S)-1-[(2S,3R,4S,5S,6R)-4,5-dihydroxy-6-methylol-3-[(2S,3R,4S,5S)-3,4,5-trihydroxytetrahydropyran-2-yl]oxy-tetrahydropyran-2-yl]oxy-1,5-dimethyl-hex-4-enyl]-12-hydroxy-4,4,8,10,14-pentamethyl-2,3,5,6,7,9,11,12,13,15,16,17-dodecahydro-1H-cyclopenta[a]phenanthren-3-yl]oxy]-6-methylol-tetrahydropyran-3,4,5-triol

> <PUBCHEM_IUPAC_INCHI>
InChI=1S/C47H80O17/c1-22(2)10-9-14-47(8,64-42-39(36(56)34(54)27(20-49)61-42)63-40-37(57)32(52)25(51)21-59-40)23-11-16-46(7)31(23)24(50)18-29-44(5)15-13-30(43(3,4)28(44)12-17-45(29,46)6)62-41-38(58)35(55)33(53)26(19-48)60-41/h10,23-42,48-58H,9,11-21H2,1-8H3/t23-,24+,25-,26+,27+,28-,29+,30-,31-,32-,33+,34+,35-,36-,37+,38+,39+,40-,41-,42-,44-,45+,46+,47-/m0/s1

> <PUBCHEM_IUPAC_INCHIKEY>
IFSJMEMWKHAUOE-FDDSVCGKSA-N

> <PUBCHEM_XLOGP3_AA>
2.5

> <PUBCHEM_EXACT_MASS>
916.54

> <PUBCHEM_MOLECULAR_FORMULA>
C47H80O17

> <PUBCHEM_MOLECULAR_WEIGHT>
917.14

> <PUBCHEM_OPENEYE_CAN_SMILES>
CC(=CCCC(C)(C1CCC2(C1C(CC3C2(CCC4C3(CCC(C4(C)C)OC5C(C(C(C(O5)CO)O)O)O)C)C)O)C)OC6C(C(C(C(O6)CO)O)O)OC7C(C(C(CO7)O)O)O)C

> <PUBCHEM_OPENEYE_ISO_SMILES>
CC(=CCC[C@@](C)([C@H]1CC[C@@]2([C@@H]1[C@@H](C[C@H]3[C@]2(CC[C@@H]4[C@@]3(CC[C@@H](C4(C)C)O[C@H]5[C@@H]([C@H]([C@@H]([C@H](O5)CO)O)O)O)C)C)O)C)O[C@H]6[C@@H]([C@H]([C@@H]([C@H](O6)CO)O)O)O[C@H]7[C@@H]([C@H]([C@H](CO7)O)O)O)C

> <PUBCHEM_CACTVS_TPSA>
278

> <PUBCHEM_MONOISOTOPIC_WEIGHT>
916.54

> <PUBCHEM_TOTAL_CHARGE>
0

> <PUBCHEM_HEAVY_ATOM_COUNT>
64

> <PUBCHEM_ATOM_DEF_STEREO_COUNT>
24

> <PUBCHEM_ATOM_UDEF_STEREO_COUNT>
0

> <PUBCHEM_BOND_DEF_STEREO_COUNT>
0

> <PUBCHEM_BOND_UDEF_STEREO_COUNT>
0

> <PUBCHEM_ISOTOPIC_ATOM_COUNT>
0

> <PUBCHEM_COMPONENT_COUNT>
1

> <PUBCHEM_CACTVS_TAUTO_COUNT>
1

> <PUBCHEM_COORDINATE_TYPE>
1
5
255

> <PUBCHEM_BONDANNOTATIONS>
27  1  5
53  10  6
54  11  6
61  15  6
62  16  5
64  17  5
18  33  5
19  34  6
36  2  5
44  2  5
20  65  6
21  35  5
22  66  5
23  67  6
25  70  6
37  3  5
45  3  5
51  56  5
52  57  5
46  6  6
58  6  5
47  7  6
49  8  5
50  9  5

$$$$
