10350931
  -OEChem-12071809282D

147153  0     1  0  0  0  0  0999 V2000
    8.0949   -3.1634    0.0000 O   0  0  0  0  0  0  0  0  0  0  0  0
    5.8433    0.8680    0.0000 O   0  0  0  0  0  0  0  0  0  0  0  0
    6.0010   -4.5903    0.0000 O   0  0  0  0  0  0  0  0  0  0  0  0
   10.9838    2.5701    0.0000 O   0  0  0  0  0  0  0  0  0  0  0  0
    4.2690   -4.5903    0.0000 O   0  0  0  0  0  0  0  0  0  0  0  0
   12.2685    1.4084    0.0000 O   0  0  0  0  0  0  0  0  0  0  0  0
    6.0010   -6.5903    0.0000 O   0  0  0  0  0  0  0  0  0  0  0  0
   12.3252    4.0535    0.0000 O   0  0  0  0  0  0  0  0  0  0  0  0
    4.2690   -7.5903    0.0000 O   0  0  0  0  0  0  0  0  0  0  0  0
    2.5369   -6.5903    0.0000 O   0  0  0  0  0  0  0  0  0  0  0  0
   14.2806    3.6336    0.0000 O   0  0  0  0  0  0  0  0  0  0  0  0
   14.8946    1.7301    0.0000 O   0  0  0  0  0  0  0  0  0  0  0  0
    2.5369   -3.5903    0.0000 O   0  0  0  0  0  0  0  0  0  0  0  0
   13.9736    4.5853    0.0000 O   0  0  0  0  0  0  0  0  0  0  0  0
   14.5309    0.0367    0.0000 O   0  0  0  0  0  0  0  0  0  0  0  0
   11.7112    5.9570    0.0000 O   0  0  0  0  0  0  0  0  0  0  0  0
   13.0526    7.4404    0.0000 O   0  0  0  0  0  0  0  0  0  0  0  0
   15.0080    7.0204    0.0000 O   0  0  0  0  0  0  0  0  0  0  0  0
   15.9290    4.1653    0.0000 O   0  0  0  0  0  0  0  0  0  0  0  0
    6.4951   -1.0561    0.0000 C   0  0  1  0  0  0  0  0  0  0  0  0
    7.1630   -0.3118    0.0000 C   0  0  1  0  0  0  0  0  0  0  0  0
    6.8058   -2.0066    0.0000 C   0  0  1  0  0  0  0  0  0  0  0  0
    8.1415   -0.5180    0.0000 C   0  0  1  0  0  0  0  0  0  0  0  0
    8.8490    0.2464    0.0000 C   0  0  2  0  0  0  0  0  0  0  0  0
    6.0010   -2.5903    0.0000 C   0  0  2  0  0  0  0  0  0  0  0  0
    5.5010   -1.0604    0.0000 C   0  0  0  0  0  0  0  0  0  0  0  0
    7.7843   -2.2129    0.0000 C   0  0  1  0  0  0  0  0  0  0  0  0
    8.4521   -1.4686    0.0000 C   0  0  0  0  0  0  0  0  0  0  0  0
    6.8241    0.6732    0.0000 C   0  0  2  0  0  0  0  0  0  0  0  0
    5.1963   -2.0066    0.0000 C   0  0  0  0  0  0  0  0  0  0  0  0
    8.5330    1.2390    0.0000 C   0  0  0  0  0  0  0  0  0  0  0  0
    5.6461   -0.5277    0.0000 C   0  0  0  0  0  0  0  0  0  0  0  0
    6.1844   -0.1056    0.0000 C   0  0  0  0  0  0  0  0  0  0  0  0
    6.0010   -3.5903    0.0000 C   0  0  2  0  0  0  0  0  0  0  0  0
    9.9052   -0.0018    0.0000 C   0  0  0  0  0  0  0  0  0  0  0  0
    7.5138    1.4538    0.0000 C   0  0  0  0  0  0  0  0  0  0  0  0
    9.2514    2.0521    0.0000 C   0  0  0  0  0  0  0  0  0  0  0  0
    9.1523   -0.7065    0.0000 C   0  0  0  0  0  0  0  0  0  0  0  0
   10.6422    0.7945    0.0000 C   0  0  0  0  0  0  0  0  0  0  0  0
   10.3131    1.8284    0.0000 C   0  0  2  0  0  0  0  0  0  0  0  0
    7.0010   -3.5903    0.0000 C   0  0  0  0  0  0  0  0  0  0  0  0
    5.0010   -3.5903    0.0000 C   0  0  0  0  0  0  0  0  0  0  0  0
    9.4538    3.0314    0.0000 C   0  0  0  0  0  0  0  0  0  0  0  0
    8.5045    2.7171    0.0000 C   0  0  0  0  0  0  0  0  0  0  0  0
    7.5010   -4.4563    0.0000 C   0  0  0  0  0  0  0  0  0  0  0  0
    5.1350   -5.0903    0.0000 C   0  0  2  0  0  0  0  0  0  0  0  0
   11.9615    2.3601    0.0000 C   0  0  2  0  0  0  0  0  0  0  0  0
    5.1350   -6.0903    0.0000 C   0  0  1  0  0  0  0  0  0  0  0  0
    8.5010   -4.4563    0.0000 C   0  0  0  0  0  0  0  0  0  0  0  0
   12.6322    3.1018    0.0000 C   0  0  1  0  0  0  0  0  0  0  0  0
    4.2690   -6.5903    0.0000 C   0  0  2  0  0  0  0  0  0  0  0  0
    3.4030   -5.0903    0.0000 C   0  0  1  0  0  0  0  0  0  0  0  0
    3.4030   -6.0903    0.0000 C   0  0  1  0  0  0  0  0  0  0  0  0
   13.6099    2.8918    0.0000 C   0  0  2  0  0  0  0  0  0  0  0  0
   13.2462    1.1984    0.0000 C   0  0  1  0  0  0  0  0  0  0  0  0
    9.0010   -5.3223    0.0000 C   0  0  0  0  0  0  0  0  0  0  0  0
   13.9169    1.9401    0.0000 C   0  0  1  0  0  0  0  0  0  0  0  0
    2.5369   -4.5903    0.0000 C   0  0  0  0  0  0  0  0  0  0  0  0
   13.5532    0.2467    0.0000 C   0  0  0  0  0  0  0  0  0  0  0  0
   10.0010   -5.3223    0.0000 C   0  0  0  0  0  0  0  0  0  0  0  0
    8.5010   -6.1883    0.0000 C   0  0  0  0  0  0  0  0  0  0  0  0
   12.9959    4.7952    0.0000 C   0  0  2  0  0  0  0  0  0  0  0  0
   12.6889    5.7470    0.0000 C   0  0  1  0  0  0  0  0  0  0  0  0
   13.3596    6.4887    0.0000 C   0  0  2  0  0  0  0  0  0  0  0  0
   14.6443    5.3270    0.0000 C   0  0  1  0  0  0  0  0  0  0  0  0
   14.3373    6.2787    0.0000 C   0  0  1  0  0  0  0  0  0  0  0  0
   15.6220    5.1170    0.0000 C   0  0  0  0  0  0  0  0  0  0  0  0
    6.9828   -2.8380    0.0000 H   0  0  0  0  0  0  0  0  0  0  0  0
    8.9718   -0.6997    0.0000 H   0  0  0  0  0  0  0  0  0  0  0  0
    5.2438   -2.9765    0.0000 H   0  0  0  0  0  0  0  0  0  0  0  0
    5.5635   -0.4436    0.0000 H   0  0  0  0  0  0  0  0  0  0  0  0
    4.8942   -0.9334    0.0000 H   0  0  0  0  0  0  0  0  0  0  0  0
    7.3702   -2.6743    0.0000 H   0  0  0  0  0  0  0  0  0  0  0  0
    8.8347   -1.9565    0.0000 H   0  0  0  0  0  0  0  0  0  0  0  0
    8.9990   -1.1766    0.0000 H   0  0  0  0  0  0  0  0  0  0  0  0
    6.6258    1.2606    0.0000 H   0  0  0  0  0  0  0  0  0  0  0  0
    4.6294   -1.7556    0.0000 H   0  0  0  0  0  0  0  0  0  0  0  0
    4.8871   -2.5440    0.0000 H   0  0  0  0  0  0  0  0  0  0  0  0
    5.9738   -0.0013    0.0000 H   0  0  0  0  0  0  0  0  0  0  0  0
    5.1198   -0.2000    0.0000 H   0  0  0  0  0  0  0  0  0  0  0  0
    5.3185   -1.0540    0.0000 H   0  0  0  0  0  0  0  0  0  0  0  0
    6.3123    0.5011    0.0000 H   0  0  0  0  0  0  0  0  0  0  0  0
    5.5778    0.0222    0.0000 H   0  0  0  0  0  0  0  0  0  0  0  0
    6.0566   -0.7123    0.0000 H   0  0  0  0  0  0  0  0  0  0  0  0
    9.6622   -0.5722    0.0000 H   0  0  0  0  0  0  0  0  0  0  0  0
   10.4256   -0.3389    0.0000 H   0  0  0  0  0  0  0  0  0  0  0  0
    7.3189    2.0424    0.0000 H   0  0  0  0  0  0  0  0  0  0  0  0
    8.5615   -0.8945    0.0000 H   0  0  0  0  0  0  0  0  0  0  0  0
    9.3404   -1.2972    0.0000 H   0  0  0  0  0  0  0  0  0  0  0  0
    9.7431   -0.5184    0.0000 H   0  0  0  0  0  0  0  0  0  0  0  0
   11.0184    0.3017    0.0000 H   0  0  0  0  0  0  0  0  0  0  0  0
   11.1921    1.0809    0.0000 H   0  0  0  0  0  0  0  0  0  0  0  0
   10.9190    1.6970    0.0000 H   0  0  0  0  0  0  0  0  0  0  0  0
    7.5836   -3.3782    0.0000 H   0  0  0  0  0  0  0  0  0  0  0  0
    6.8934   -2.9797    0.0000 H   0  0  0  0  0  0  0  0  0  0  0  0
    8.7016   -3.2912    0.0000 H   0  0  0  0  0  0  0  0  0  0  0  0
    5.0010   -2.9703    0.0000 H   0  0  0  0  0  0  0  0  0  0  0  0
    4.3810   -3.5903    0.0000 H   0  0  0  0  0  0  0  0  0  0  0  0
    5.0010   -4.2103    0.0000 H   0  0  0  0  0  0  0  0  0  0  0  0
    5.6439    1.4551    0.0000 H   0  0  0  0  0  0  0  0  0  0  0  0
   10.0610    2.9059    0.0000 H   0  0  0  0  0  0  0  0  0  0  0  0
    9.5793    3.6386    0.0000 H   0  0  0  0  0  0  0  0  0  0  0  0
    8.8467    3.1569    0.0000 H   0  0  0  0  0  0  0  0  0  0  0  0
    8.9168    3.1801    0.0000 H   0  0  0  0  0  0  0  0  0  0  0  0
    8.0414    3.1294    0.0000 H   0  0  0  0  0  0  0  0  0  0  0  0
    8.0922    2.2540    0.0000 H   0  0  0  0  0  0  0  0  0  0  0  0
    6.9184   -4.6683    0.0000 H   0  0  0  0  0  0  0  0  0  0  0  0
    7.6087   -5.0669    0.0000 H   0  0  0  0  0  0  0  0  0  0  0  0
    5.1350   -4.4703    0.0000 H   0  0  0  0  0  0  0  0  0  0  0  0
   11.7711    2.9502    0.0000 H   0  0  0  0  0  0  0  0  0  0  0  0
    5.1350   -6.7103    0.0000 H   0  0  0  0  0  0  0  0  0  0  0  0
    8.8110   -3.9194    0.0000 H   0  0  0  0  0  0  0  0  0  0  0  0
   13.0480    3.5617    0.0000 H   0  0  0  0  0  0  0  0  0  0  0  0
    3.7320   -6.9003    0.0000 H   0  0  0  0  0  0  0  0  0  0  0  0
    3.4030   -4.4703    0.0000 H   0  0  0  0  0  0  0  0  0  0  0  0
    2.8660   -5.7803    0.0000 H   0  0  0  0  0  0  0  0  0  0  0  0
   14.2161    2.7616    0.0000 H   0  0  0  0  0  0  0  0  0  0  0  0
   12.8303    0.7385    0.0000 H   0  0  0  0  0  0  0  0  0  0  0  0
   14.1072    1.3500    0.0000 H   0  0  0  0  0  0  0  0  0  0  0  0
    6.0010   -7.2103    0.0000 H   0  0  0  0  0  0  0  0  0  0  0  0
    1.9264   -4.4826    0.0000 H   0  0  0  0  0  0  0  0  0  0  0  0
    2.3249   -5.1729    0.0000 H   0  0  0  0  0  0  0  0  0  0  0  0
    3.7320   -7.9003    0.0000 H   0  0  0  0  0  0  0  0  0  0  0  0
   12.9390    0.1617    0.0000 H   0  0  0  0  0  0  0  0  0  0  0  0
   13.5302   -0.3729    0.0000 H   0  0  0  0  0  0  0  0  0  0  0  0
    7.9641   -5.8783    0.0000 H   0  0  0  0  0  0  0  0  0  0  0  0
    8.1910   -6.7253    0.0000 H   0  0  0  0  0  0  0  0  0  0  0  0
   10.0010   -5.9423    0.0000 H   0  0  0  0  0  0  0  0  0  0  0  0
   10.6210   -5.3223    0.0000 H   0  0  0  0  0  0  0  0  0  0  0  0
   10.0010   -4.7023    0.0000 H   0  0  0  0  0  0  0  0  0  0  0  0
    9.0380   -6.4983    0.0000 H   0  0  0  0  0  0  0  0  0  0  0  0
    2.0000   -6.2803    0.0000 H   0  0  0  0  0  0  0  0  0  0  0  0
   12.3897    4.9254    0.0000 H   0  0  0  0  0  0  0  0  0  0  0  0
   14.8868    3.5034    0.0000 H   0  0  0  0  0  0  0  0  0  0  0  0
   15.3104    2.1900    0.0000 H   0  0  0  0  0  0  0  0  0  0  0  0
   12.4986    6.3370    0.0000 H   0  0  0  0  0  0  0  0  0  0  0  0
    2.0000   -3.2803    0.0000 H   0  0  0  0  0  0  0  0  0  0  0  0
   14.7212   -0.5534    0.0000 H   0  0  0  0  0  0  0  0  0  0  0  0
   13.7754    6.9486    0.0000 H   0  0  0  0  0  0  0  0  0  0  0  0
   14.8346    4.7369    0.0000 H   0  0  0  0  0  0  0  0  0  0  0  0
   14.9435    6.1485    0.0000 H   0  0  0  0  0  0  0  0  0  0  0  0
   11.5208    6.5470    0.0000 H   0  0  0  0  0  0  0  0  0  0  0  0
   16.2361    5.2020    0.0000 H   0  0  0  0  0  0  0  0  0  0  0  0
   15.6450    5.7366    0.0000 H   0  0  0  0  0  0  0  0  0  0  0  0
   13.4684    7.9003    0.0000 H   0  0  0  0  0  0  0  0  0  0  0  0
   15.6142    6.8902    0.0000 H   0  0  0  0  0  0  0  0  0  0  0  0
   16.5352    4.0351    0.0000 H   0  0  0  0  0  0  0  0  0  0  0  0
 27  1  1  1  0  0  0
  1 96  1  0  0  0  0
 29  2  1  1  0  0  0
  2100  1  0  0  0  0
 34  3  1  6  0  0  0
 46  3  1  1  0  0  0
 40  4  1  1  0  0  0
 47  4  1  1  0  0  0
  5 46  1  0  0  0  0
  5 52  1  0  0  0  0
  6 47  1  0  0  0  0
  6 55  1  0  0  0  0
 48  7  1  6  0  0  0
  7120  1  0  0  0  0
 50  8  1  6  0  0  0
 62  8  1  1  0  0  0
 51  9  1  1  0  0  0
  9123  1  0  0  0  0
 53 10  1  6  0  0  0
 10132  1  0  0  0  0
 54 11  1  1  0  0  0
 11134  1  0  0  0  0
 57 12  1  6  0  0  0
 12135  1  0  0  0  0
 13 58  1  0  0  0  0
 13137  1  0  0  0  0
 14 62  1  0  0  0  0
 14 65  1  0  0  0  0
 15 59  1  0  0  0  0
 15138  1  0  0  0  0
 63 16  1  6  0  0  0
 16142  1  0  0  0  0
 64 17  1  1  0  0  0
 17145  1  0  0  0  0
 66 18  1  6  0  0  0
 18146  1  0  0  0  0
 19 67  1  0  0  0  0
 19147  1  0  0  0  0
 20 21  1  0  0  0  0
 20 22  1  0  0  0  0
 20 26  1  0  0  0  0
 20 32  1  6  0  0  0
 21 23  1  0  0  0  0
 21 29  1  0  0  0  0
 21 33  1  1  0  0  0
 22 25  1  0  0  0  0
 22 27  1  0  0  0  0
 22 68  1  1  0  0  0
 23 24  1  0  0  0  0
 23 28  1  0  0  0  0
 23 69  1  6  0  0  0
 24 31  1  0  0  0  0
 24 35  1  0  0  0  0
 24 38  1  1  0  0  0
 25 30  1  0  0  0  0
 25 34  1  0  0  0  0
 25 70  1  6  0  0  0
 26 30  1  0  0  0  0
 26 71  1  0  0  0  0
 26 72  1  0  0  0  0
 27 28  1  0  0  0  0
 27 73  1  0  0  0  0
 28 74  1  0  0  0  0
 28 75  1  0  0  0  0
 29 36  1  0  0  0  0
 29 76  1  0  0  0  0
 30 77  1  0  0  0  0
 30 78  1  0  0  0  0
 31 36  2  0  0  0  0
 31 37  1  0  0  0  0
 32 79  1  0  0  0  0
 32 80  1  0  0  0  0
 32 81  1  0  0  0  0
 33 82  1  0  0  0  0
 33 83  1  0  0  0  0
 33 84  1  0  0  0  0
 34 41  1  0  0  0  0
 34 42  1  0  0  0  0
 35 39  1  0  0  0  0
 35 85  1  0  0  0  0
 35 86  1  0  0  0  0
 36 87  1  0  0  0  0
 37 40  1  0  0  0  0
 37 43  1  0  0  0  0
 37 44  1  0  0  0  0
 38 88  1  0  0  0  0
 38 89  1  0  0  0  0
 38 90  1  0  0  0  0
 39 40  1  0  0  0  0
 39 91  1  0  0  0  0
 39 92  1  0  0  0  0
 40 93  1  0  0  0  0
 41 45  1  0  0  0  0
 41 94  1  0  0  0  0
 41 95  1  0  0  0  0
 42 97  1  0  0  0  0
 42 98  1  0  0  0  0
 42 99  1  0  0  0  0
 43101  1  0  0  0  0
 43102  1  0  0  0  0
 43103  1  0  0  0  0
 44104  1  0  0  0  0
 44105  1  0  0  0  0
 44106  1  0  0  0  0
 45 49  1  0  0  0  0
 45107  1  0  0  0  0
 45108  1  0  0  0  0
 46 48  1  0  0  0  0
 46109  1  0  0  0  0
 47 50  1  0  0  0  0
 47110  1  0  0  0  0
 48 51  1  0  0  0  0
 48111  1  0  0  0  0
 49 56  2  0  0  0  0
 49112  1  0  0  0  0
 50 54  1  0  0  0  0
 50113  1  0  0  0  0
 51 53  1  0  0  0  0
 51114  1  0  0  0  0
 52 53  1  0  0  0  0
 52 58  1  1  0  0  0
 52115  1  0  0  0  0
 53116  1  0  0  0  0
 54 57  1  0  0  0  0
 54117  1  0  0  0  0
 55 57  1  0  0  0  0
 55 59  1  1  0  0  0
 55118  1  0  0  0  0
 56 60  1  0  0  0  0
 56 61  1  0  0  0  0
 57119  1  0  0  0  0
 58121  1  0  0  0  0
 58122  1  0  0  0  0
 59124  1  0  0  0  0
 59125  1  0  0  0  0
 60128  1  0  0  0  0
 60129  1  0  0  0  0
 60130  1  0  0  0  0
 61126  1  0  0  0  0
 61127  1  0  0  0  0
 61131  1  0  0  0  0
 62 63  1  0  0  0  0
 62133  1  0  0  0  0
 63 64  1  0  0  0  0
 63136  1  0  0  0  0
 64 66  1  0  0  0  0
 64139  1  0  0  0  0
 65 66  1  0  0  0  0
 65 67  1  1  0  0  0
 65140  1  0  0  0  0
 66141  1  0  0  0  0
 67143  1  0  0  0  0
 67144  1  0  0  0  0
M  END
> <PUBCHEM_COMPOUND_CID>
10350931

> <PUBCHEM_COMPOUND_CANONICALIZED>
1

> <PUBCHEM_CACTVS_COMPLEXITY>
1780

> <PUBCHEM_CACTVS_HBOND_ACCEPTOR>
19

> <PUBCHEM_CACTVS_HBOND_DONOR>
13

> <PUBCHEM_CACTVS_ROTATABLE_BOND>
13

> <PUBCHEM_CACTVS_SUBSKEYS>
AAADcfB8PgAAAAAAAAAAAAAAAAAAAYAAAAA0aJECAAAAAGCAAAAAGgAACAAAD1SwgAMCCAAABgCAAiBCAAAAAAAgAAAACAAAAAgRFAIAAQAiUAAFwAAPEAPA4PwPgAAAAAAAAADAAAYAADAAAQAACAAAAA==

> <PUBCHEM_IUPAC_OPENEYE_NAME>
(2S,3R,4S,5S,6R)-2-[(2R,3R,4S,5S,6R)-2-[[(3S,7S,8R,9R,10R,12R,13R,14R,17S)-17-[(1S)-1,5-dimethyl-1-[(2S,3R,4S,5S,6R)-3,4,5-trihydroxy-6-(hydroxymethyl)tetrahydropyran-2-yl]oxy-hex-4-enyl]-7,12-dihydroxy-4,4,8,10,14-pentamethyl-2,3,7,9,11,12,13,15,16,17-decahydro-1H-cyclopenta[a]phenanthren-3-yl]oxy]-4,5-dihydroxy-6-(hydroxymethyl)tetrahydropyran-3-yl]oxy-6-(hydroxymethyl)tetrahydropyran-3,4,5-triol

> <PUBCHEM_IUPAC_CAS_NAME>
(2S,3R,4S,5S,6R)-2-[[(2R,3R,4S,5S,6R)-2-[[(3S,7S,8R,9R,10R,12R,13R,14R,17S)-7,12-dihydroxy-4,4,8,10,14-pentamethyl-17-[(2S)-6-methyl-2-[[(2S,3R,4S,5S,6R)-3,4,5-trihydroxy-6-(hydroxymethyl)-2-oxanyl]oxy]hept-5-en-2-yl]-2,3,7,9,11,12,13,15,16,17-decahydro-1H-cyclopenta[a]phenanthren-3-yl]oxy]-4,5-dihydroxy-6-(hydroxymethyl)-3-oxanyl]oxy]-6-(hydroxymethyl)oxane-3,4,5-triol

> <PUBCHEM_IUPAC_NAME>
(2S,3R,4S,5S,6R)-2-[(2R,3R,4S,5S,6R)-2-[[(3S,7S,8R,9R,10R,12R,13R,14R,17S)-7,12-dihydroxy-4,4,8,10,14-pentamethyl-17-[(2S)-6-methyl-2-[(2S,3R,4S,5S,6R)-3,4,5-trihydroxy-6-(hydroxymethyl)oxan-2-yl]oxyhept-5-en-2-yl]-2,3,7,9,11,12,13,15,16,17-decahydro-1H-cyclopenta[a]phenanthren-3-yl]oxy]-4,5-dihydroxy-6-(hydroxymethyl)oxan-3-yl]oxy-6-(hydroxymethyl)oxane-3,4,5-triol

> <PUBCHEM_IUPAC_SYSTEMATIC_NAME>
(2R,3S,4S,5R,6S)-2-(hydroxymethyl)-6-[(2R,3R,4S,5S,6R)-6-(hydroxymethyl)-2-[[(3S,7S,8R,9R,10R,12R,13R,14R,17S)-17-[(2S)-2-[(2S,3R,4S,5S,6R)-6-(hydroxymethyl)-3,4,5-tris(oxidanyl)oxan-2-yl]oxy-6-methyl-hept-5-en-2-yl]-4,4,8,10,14-pentamethyl-7,12-bis(oxidanyl)-2,3,7,9,11,12,13,15,16,17-decahydro-1H-cyclopenta[a]phenanthren-3-yl]oxy]-4,5-bis(oxidanyl)oxan-3-yl]oxy-oxane-3,4,5-triol

> <PUBCHEM_IUPAC_TRADITIONAL_NAME>
(2S,3R,4S,5S,6R)-2-[(2R,3R,4S,5S,6R)-2-[[(3S,7S,8R,9R,10R,12R,13R,14R,17S)-17-[(1S)-1,5-dimethyl-1-[(2S,3R,4S,5S,6R)-3,4,5-trihydroxy-6-methylol-tetrahydropyran-2-yl]oxy-hex-4-enyl]-7,12-dihydroxy-4,4,8,10,14-pentamethyl-2,3,7,9,11,12,13,15,16,17-decahydro-1H-cyclopenta[a]phenanthren-3-yl]oxy]-4,5-dihydroxy-6-methylol-tetrahydropyran-3-yl]oxy-6-methylol-tetrahydropyran-3,4,5-triol

> <PUBCHEM_IUPAC_INCHI>
InChI=1S/C48H80O19/c1-21(2)10-9-13-47(7,67-42-39(61)36(58)33(55)25(19-50)63-42)22-11-15-46(6)31(22)23(52)16-28-45(5)14-12-30(44(3,4)27(45)17-29(53)48(28,46)8)65-43-40(37(59)34(56)26(20-51)64-43)66-41-38(60)35(57)32(54)24(18-49)62-41/h10,17,22-26,28-43,49-61H,9,11-16,18-20H2,1-8H3/t22-,23+,24+,25+,26+,28+,29-,30-,31-,32+,33+,34+,35-,36-,37-,38+,39+,40+,41-,42-,43-,45-,46+,47-,48-/m0/s1

> <PUBCHEM_IUPAC_INCHIKEY>
BJTRHGSEMPBIPZ-XZNKTVAQSA-N

> <PUBCHEM_XLOGP3_AA>
0.5

> <PUBCHEM_EXACT_MASS>
960.529

> <PUBCHEM_MOLECULAR_FORMULA>
C48H80O19

> <PUBCHEM_MOLECULAR_WEIGHT>
961.149

> <PUBCHEM_OPENEYE_CAN_SMILES>
CC(=CCCC(C)(C1CCC2(C1C(CC3C2(C(C=C4C3(CCC(C4(C)C)OC5C(C(C(C(O5)CO)O)O)OC6C(C(C(C(O6)CO)O)O)O)C)O)C)O)C)OC7C(C(C(C(O7)CO)O)O)O)C

> <PUBCHEM_OPENEYE_ISO_SMILES>
CC(=CCC[C@@](C)([C@H]1CC[C@@]2([C@@H]1[C@@H](C[C@H]3[C@]2([C@H](C=C4[C@@]3(CC[C@@H](C4(C)C)O[C@H]5[C@@H]([C@H]([C@@H]([C@H](O5)CO)O)O)O[C@H]6[C@@H]([C@H]([C@@H]([C@H](O6)CO)O)O)O)C)O)C)O)C)O[C@H]7[C@@H]([C@H]([C@@H]([C@H](O7)CO)O)O)O)C

> <PUBCHEM_CACTVS_TPSA>
318

> <PUBCHEM_MONOISOTOPIC_WEIGHT>
960.529

> <PUBCHEM_TOTAL_CHARGE>
0

> <PUBCHEM_HEAVY_ATOM_COUNT>
67

> <PUBCHEM_ATOM_DEF_STEREO_COUNT>
25

> <PUBCHEM_ATOM_UDEF_STEREO_COUNT>
0

> <PUBCHEM_BOND_DEF_STEREO_COUNT>
0

> <PUBCHEM_BOND_UDEF_STEREO_COUNT>
0

> <PUBCHEM_ISOTOPIC_ATOM_COUNT>
0

> <PUBCHEM_COMPONENT_COUNT>
1

> <PUBCHEM_CACTVS_TAUTO_COUNT>
1

> <PUBCHEM_COORDINATE_TYPE>
1
5
255

> <PUBCHEM_BONDANNOTATIONS>
27  1  5
53  10  6
54  11  5
57  12  6
63  16  6
64  17  5
66  18  6
29  2  5
20  32  6
21  33  5
22  68  5
23  69  6
24  38  5
25  70  6
34  3  6
46  3  5
40  4  5
47  4  5
52  58  5
55  59  5
65  67  5
48  7  6
50  8  6
62  8  5
51  9  5

$$$$
