24883669
  -OEChem-12071809182D

 50 53  0     1  0  0  0  0  0999 V2000
    7.8609    1.6120    0.0000 O   0  0  0  0  0  0  0  0  0  0  0  0
    5.6538    0.1310    0.0000 C   0  0  3  0  0  0  0  0  0  0  0  0
    4.7853    0.6266    0.0000 C   0  0  3  0  0  0  0  0  0  0  0  0
    3.8778    0.1153    0.0000 C   0  0  1  0  0  0  0  0  0  0  0  0
    3.8750   -0.9264    0.0000 C   0  0  2  0  0  0  0  0  0  0  0  0
    5.6751   -0.9104    0.0000 C   0  0  0  0  0  0  0  0  0  0  0  0
    5.6293    1.3123    0.0000 C   0  0  0  0  0  0  0  0  0  0  0  0
    4.7797   -1.4427    0.0000 C   0  0  0  0  0  0  0  0  0  0  0  0
    2.9423   -1.4807    0.0000 C   0  0  0  0  0  0  0  0  0  0  0  0
    4.6313    1.6147    0.0000 C   0  0  0  0  0  0  0  0  0  0  0  0
    6.3054    2.2814    0.0000 C   0  0  3  0  0  0  0  0  0  0  0  0
    6.5828    0.5009    0.0000 C   0  0  0  0  0  0  0  0  0  0  0  0
    2.9482    0.6747    0.0000 C   0  0  0  0  0  0  0  0  0  0  0  0
    5.3078    2.3512    0.0000 C   0  0  0  0  0  0  0  0  0  0  0  0
    3.8806    1.1153    0.0000 C   0  0  0  0  0  0  0  0  0  0  0  0
    2.0000   -0.9429    0.0000 C   0  0  0  0  0  0  0  0  0  0  0  0
    6.8728    1.4580    0.0000 C   0  0  0  0  0  0  0  0  0  0  0  0
    2.0029    0.1421    0.0000 C   0  0  0  0  0  0  0  0  0  0  0  0
    2.4500   -2.3512    0.0000 C   0  0  0  0  0  0  0  0  0  0  0  0
    3.4500   -2.3423    0.0000 C   0  0  0  0  0  0  0  0  0  0  0  0
    5.4852    1.1090    0.0000 H   0  0  0  0  0  0  0  0  0  0  0  0
    3.8825   -1.7763    0.0000 H   0  0  0  0  0  0  0  0  0  0  0  0
    5.8960   -1.4897    0.0000 H   0  0  0  0  0  0  0  0  0  0  0  0
    6.2836   -0.7919    0.0000 H   0  0  0  0  0  0  0  0  0  0  0  0
    5.2551    1.8066    0.0000 H   0  0  0  0  0  0  0  0  0  0  0  0
    5.0436    1.1089    0.0000 H   0  0  0  0  0  0  0  0  0  0  0  0
    4.3847   -1.9206    0.0000 H   0  0  0  0  0  0  0  0  0  0  0  0
    5.1830   -1.9136    0.0000 H   0  0  0  0  0  0  0  0  0  0  0  0
    4.2795    2.1252    0.0000 H   0  0  0  0  0  0  0  0  0  0  0  0
    4.0553    1.3853    0.0000 H   0  0  0  0  0  0  0  0  0  0  0  0
    6.7267    3.0196    0.0000 H   0  0  0  0  0  0  0  0  0  0  0  0
    6.6783   -0.1117    0.0000 H   0  0  0  0  0  0  0  0  0  0  0  0
    7.2013    0.4577    0.0000 H   0  0  0  0  0  0  0  0  0  0  0  0
    3.3541    1.1434    0.0000 H   0  0  0  0  0  0  0  0  0  0  0  0
    2.5559    1.1548    0.0000 H   0  0  0  0  0  0  0  0  0  0  0  0
    5.4876    2.9445    0.0000 H   0  0  0  0  0  0  0  0  0  0  0  0
    4.7694    2.6585    0.0000 H   0  0  0  0  0  0  0  0  0  0  0  0
    4.5005    1.1136    0.0000 H   0  0  0  0  0  0  0  0  0  0  0  0
    3.8822    1.7353    0.0000 H   0  0  0  0  0  0  0  0  0  0  0  0
    3.2606    1.1170    0.0000 H   0  0  0  0  0  0  0  0  0  0  0  0
    1.3894   -0.8352    0.0000 H   0  0  0  0  0  0  0  0  0  0  0  0
    1.7894   -1.5261    0.0000 H   0  0  0  0  0  0  0  0  0  0  0  0
    1.7955    0.7263    0.0000 H   0  0  0  0  0  0  0  0  0  0  0  0
    1.3918    0.0376    0.0000 H   0  0  0  0  0  0  0  0  0  0  0  0
    1.9104   -2.0459    0.0000 H   0  0  0  0  0  0  0  0  0  0  0  0
    2.1448   -2.8908    0.0000 H   0  0  0  0  0  0  0  0  0  0  0  0
    2.9897   -2.6564    0.0000 H   0  0  0  0  0  0  0  0  0  0  0  0
    2.9158   -2.6570    0.0000 H   0  0  0  0  0  0  0  0  0  0  0  0
    3.7647   -2.8765    0.0000 H   0  0  0  0  0  0  0  0  0  0  0  0
    3.9841   -2.0276    0.0000 H   0  0  0  0  0  0  0  0  0  0  0  0
  1 17  2  0  0  0  0
  2  3  1  0  0  0  0
  2  6  1  0  0  0  0
  2  7  1  0  0  0  0
  2 12  1  0  0  0  0
  3  4  1  0  0  0  0
  3 10  1  0  0  0  0
  3 21  1  0  0  0  0
  4  5  1  0  0  0  0
  4 13  1  0  0  0  0
  4 15  1  6  0  0  0
  5  8  1  0  0  0  0
  5  9  1  0  0  0  0
  5 22  1  1  0  0  0
  6  8  1  0  0  0  0
  6 23  1  0  0  0  0
  6 24  1  0  0  0  0
  7 11  1  0  0  0  0
  7 25  1  0  0  0  0
  7 26  1  0  0  0  0
  8 27  1  0  0  0  0
  8 28  1  0  0  0  0
  9 16  1  0  0  0  0
  9 19  1  0  0  0  0
  9 20  1  0  0  0  0
 10 14  1  0  0  0  0
 10 29  1  0  0  0  0
 10 30  1  0  0  0  0
 11 14  1  0  0  0  0
 11 17  1  0  0  0  0
 11 31  1  0  0  0  0
 12 17  1  0  0  0  0
 12 32  1  0  0  0  0
 12 33  1  0  0  0  0
 13 18  1  0  0  0  0
 13 34  1  0  0  0  0
 13 35  1  0  0  0  0
 14 36  1  0  0  0  0
 14 37  1  0  0  0  0
 15 38  1  0  0  0  0
 15 39  1  0  0  0  0
 15 40  1  0  0  0  0
 16 18  1  0  0  0  0
 16 41  1  0  0  0  0
 16 42  1  0  0  0  0
 18 43  1  0  0  0  0
 18 44  1  0  0  0  0
 19 45  1  0  0  0  0
 19 46  1  0  0  0  0
 19 47  1  0  0  0  0
 20 48  1  0  0  0  0
 20 49  1  0  0  0  0
 20 50  1  0  0  0  0
M  END
> <PUBCHEM_COMPOUND_CID>
24883669

> <PUBCHEM_COMPOUND_CANONICALIZED>
1

> <PUBCHEM_CACTVS_COMPLEXITY>
451

> <PUBCHEM_CACTVS_HBOND_ACCEPTOR>
1

> <PUBCHEM_CACTVS_HBOND_DONOR>
0

> <PUBCHEM_CACTVS_ROTATABLE_BOND>
0

> <PUBCHEM_CACTVS_SUBSKEYS>
AAADceB4IAAAAAAAAAAAAAAAAAAAAYAAAAAwYMAABgAAAADAAAAAGgAAAAAADwSAgAACAAAAAAAIAIAQAAAAAAAAAAAAAAEAAAAAABIAAAAAAAAAAAAAAAEIiMCPgAAAAAAAAACAAAQAACAAAQAAAAAAAA==

> <PUBCHEM_IUPAC_INCHI>
InChI=1S/C19H30O/c1-17(2)8-4-9-18(3)15(17)7-10-19-11-13(14(20)12-19)5-6-16(18)19/h13,15-16H,4-12H2,1-3H3/t13?,15-,16?,18-,19?/m1/s1

> <PUBCHEM_IUPAC_INCHIKEY>
JJFSSTSAIZSCOF-QDLKDHEWSA-N

> <PUBCHEM_XLOGP3_AA>
5.5

> <PUBCHEM_EXACT_MASS>
274.23

> <PUBCHEM_MOLECULAR_FORMULA>
C19H30O

> <PUBCHEM_MOLECULAR_WEIGHT>
274.448

> <PUBCHEM_OPENEYE_CAN_SMILES>
CC1(CCCC2(C1CCC34C2CCC(C3)C(=O)C4)C)C

> <PUBCHEM_OPENEYE_ISO_SMILES>
C[C@@]12CCCC([C@H]1CCC34C2CCC(C3)C(=O)C4)(C)C

> <PUBCHEM_CACTVS_TPSA>
17.1

> <PUBCHEM_MONOISOTOPIC_WEIGHT>
274.23

> <PUBCHEM_TOTAL_CHARGE>
0

> <PUBCHEM_HEAVY_ATOM_COUNT>
20

> <PUBCHEM_ATOM_DEF_STEREO_COUNT>
2

> <PUBCHEM_ATOM_UDEF_STEREO_COUNT>
3

> <PUBCHEM_BOND_DEF_STEREO_COUNT>
0

> <PUBCHEM_BOND_UDEF_STEREO_COUNT>
0

> <PUBCHEM_ISOTOPIC_ATOM_COUNT>
0

> <PUBCHEM_COMPONENT_COUNT>
1

> <PUBCHEM_CACTVS_TAUTO_COUNT>
2

> <PUBCHEM_COORDINATE_TYPE>
1
5
255

> <PUBCHEM_BONDANNOTATIONS>
11  31  3
2  3  3
3  21  3
4  15  6
5  22  5

$$$$
