57403608
  -OEChem-12071809232D

 33 33  0     1  0  0  0  0  0999 V2000
    2.8660   -2.0950    0.0000 O   0  0  0  0  0  0  0  0  0  0  0  0
    6.3301   -1.0950    0.0000 O   0  0  0  0  0  0  0  0  0  0  0  0
    2.8660    0.9050    0.0000 O   0  0  0  0  0  0  0  0  0  0  0  0
    4.5981    0.9050    0.0000 N   0  0  0  0  0  0  0  0  0  0  0  0
    4.5981   -1.0950    0.0000 N   0  0  0  0  0  0  0  0  0  0  0  0
    5.4641    0.4050    0.0000 C   0  0  1  0  0  0  0  0  0  0  0  0
    6.3301    0.9050    0.0000 C   0  0  0  0  0  0  0  0  0  0  0  0
    3.7320   -0.5950    0.0000 C   0  0  1  0  0  0  0  0  0  0  0  0
    6.3301    1.9050    0.0000 C   0  0  0  0  0  0  0  0  0  0  0  0
    5.4641   -0.5950    0.0000 C   0  0  0  0  0  0  0  0  0  0  0  0
    2.8660   -1.0950    0.0000 C   0  0  1  0  0  0  0  0  0  0  0  0
    3.7320    0.4050    0.0000 C   0  0  0  0  0  0  0  0  0  0  0  0
    7.1962    2.4050    0.0000 C   0  0  0  0  0  0  0  0  0  0  0  0
    5.4641    2.4050    0.0000 C   0  0  0  0  0  0  0  0  0  0  0  0
    2.0000   -0.5950    0.0000 C   0  0  0  0  0  0  0  0  0  0  0  0
    5.4641    1.0250    0.0000 H   0  0  0  0  0  0  0  0  0  0  0  0
    6.5422    0.3224    0.0000 H   0  0  0  0  0  0  0  0  0  0  0  0
    6.9407    1.0127    0.0000 H   0  0  0  0  0  0  0  0  0  0  0  0
    3.7320   -1.4450    0.0000 H   0  0  0  0  0  0  0  0  0  0  0  0
    6.8671    1.5950    0.0000 H   0  0  0  0  0  0  0  0  0  0  0  0
    4.5981    1.5250    0.0000 H   0  0  0  0  0  0  0  0  0  0  0  0
    2.3291   -1.4050    0.0000 H   0  0  0  0  0  0  0  0  0  0  0  0
    4.5981   -1.7150    0.0000 H   0  0  0  0  0  0  0  0  0  0  0  0
    7.5062    1.8681    0.0000 H   0  0  0  0  0  0  0  0  0  0  0  0
    7.7331    2.7150    0.0000 H   0  0  0  0  0  0  0  0  0  0  0  0
    6.8862    2.9419    0.0000 H   0  0  0  0  0  0  0  0  0  0  0  0
    5.7741    2.9419    0.0000 H   0  0  0  0  0  0  0  0  0  0  0  0
    4.9272    2.7150    0.0000 H   0  0  0  0  0  0  0  0  0  0  0  0
    5.1541    1.8681    0.0000 H   0  0  0  0  0  0  0  0  0  0  0  0
    2.3100   -0.0581    0.0000 H   0  0  0  0  0  0  0  0  0  0  0  0
    1.4631   -0.2850    0.0000 H   0  0  0  0  0  0  0  0  0  0  0  0
    1.6900   -1.1319    0.0000 H   0  0  0  0  0  0  0  0  0  0  0  0
    2.3291   -2.4050    0.0000 H   0  0  0  0  0  0  0  0  0  0  0  0
 11  1  1  6  0  0  0
  1 33  1  0  0  0  0
  2 10  2  0  0  0  0
  3 12  2  0  0  0  0
  4  6  1  0  0  0  0
  4 12  1  0  0  0  0
  4 21  1  0  0  0  0
  5  8  1  0  0  0  0
  5 10  1  0  0  0  0
  5 23  1  0  0  0  0
  6  7  1  1  0  0  0
  6 10  1  0  0  0  0
  6 16  1  0  0  0  0
  7  9  1  0  0  0  0
  7 17  1  0  0  0  0
  7 18  1  0  0  0  0
  8 11  1  0  0  0  0
  8 12  1  0  0  0  0
  8 19  1  6  0  0  0
  9 13  1  0  0  0  0
  9 14  1  0  0  0  0
  9 20  1  0  0  0  0
 11 15  1  0  0  0  0
 11 22  1  0  0  0  0
 13 24  1  0  0  0  0
 13 25  1  0  0  0  0
 13 26  1  0  0  0  0
 14 27  1  0  0  0  0
 14 28  1  0  0  0  0
 14 29  1  0  0  0  0
 15 30  1  0  0  0  0
 15 31  1  0  0  0  0
 15 32  1  0  0  0  0
M  END
> <PUBCHEM_COMPOUND_CID>
57403608

> <PUBCHEM_COMPOUND_CANONICALIZED>
1

> <PUBCHEM_CACTVS_COMPLEXITY>
265

> <PUBCHEM_CACTVS_HBOND_ACCEPTOR>
3

> <PUBCHEM_CACTVS_HBOND_DONOR>
3

> <PUBCHEM_CACTVS_ROTATABLE_BOND>
3

> <PUBCHEM_CACTVS_SUBSKEYS>
AAADceBzMAAAAAAAAAAAAAAAAAAAAAAAAAAsAAAAAAAAAAAAAAAAHgAQCAAADTzhgAYCAALAAgAIAAEQEAAAAAAAAAAAAIGIAAACUBYAgCAUQAACNgCQAAAYAAAMAAAAAAAAAAAAAAAAAAAAAAAAAAAAAA==

> <PUBCHEM_IUPAC_OPENEYE_NAME>
(3S,6S)-3-[(1R)-1-hydroxyethyl]-6-isobutyl-piperazine-2,5-dione

> <PUBCHEM_IUPAC_CAS_NAME>
(3S,6S)-3-[(1R)-1-hydroxyethyl]-6-(2-methylpropyl)piperazine-2,5-dione

> <PUBCHEM_IUPAC_NAME>
(3S,6S)-3-[(1R)-1-hydroxyethyl]-6-(2-methylpropyl)piperazine-2,5-dione

> <PUBCHEM_IUPAC_SYSTEMATIC_NAME>
(3S,6S)-3-(2-methylpropyl)-6-[(1R)-1-oxidanylethyl]piperazine-2,5-dione

> <PUBCHEM_IUPAC_TRADITIONAL_NAME>
(3S,6S)-3-[(1R)-1-hydroxyethyl]-6-isobutyl-piperazine-2,5-quinone

> <PUBCHEM_IUPAC_INCHI>
InChI=1S/C10H18N2O3/c1-5(2)4-7-9(14)12-8(6(3)13)10(15)11-7/h5-8,13H,4H2,1-3H3,(H,11,15)(H,12,14)/t6-,7+,8+/m1/s1

> <PUBCHEM_IUPAC_INCHIKEY>
UBJFWFZZUVUIOS-CSMHCCOUSA-N

> <PUBCHEM_XLOGP3_AA>
0.7

> <PUBCHEM_EXACT_MASS>
214.132

> <PUBCHEM_MOLECULAR_FORMULA>
C10H18N2O3

> <PUBCHEM_MOLECULAR_WEIGHT>
214.265

> <PUBCHEM_OPENEYE_CAN_SMILES>
CC(C)CC1C(=O)NC(C(=O)N1)C(C)O

> <PUBCHEM_OPENEYE_ISO_SMILES>
C[C@H]([C@H]1C(=O)N[C@H](C(=O)N1)CC(C)C)O

> <PUBCHEM_CACTVS_TPSA>
78.4

> <PUBCHEM_MONOISOTOPIC_WEIGHT>
214.132

> <PUBCHEM_TOTAL_CHARGE>
0

> <PUBCHEM_HEAVY_ATOM_COUNT>
15

> <PUBCHEM_ATOM_DEF_STEREO_COUNT>
3

> <PUBCHEM_ATOM_UDEF_STEREO_COUNT>
0

> <PUBCHEM_BOND_DEF_STEREO_COUNT>
0

> <PUBCHEM_BOND_UDEF_STEREO_COUNT>
0

> <PUBCHEM_ISOTOPIC_ATOM_COUNT>
0

> <PUBCHEM_COMPONENT_COUNT>
1

> <PUBCHEM_CACTVS_TAUTO_COUNT>
9

> <PUBCHEM_COORDINATE_TYPE>
1
5
255

> <PUBCHEM_BONDANNOTATIONS>
11  1  6
6  7  5
8  19  6

$$$$
