11679800
  -OEChem-12071809262D

148154  0     1  0  0  0  0  0999 V2000
    5.1643    2.8854    0.0000 O   0  0  0  0  0  0  0  0  0  0  0  0
    6.8671   -3.3048    0.0000 O   0  0  0  0  0  0  0  0  0  0  0  0
    5.7604    5.3481    0.0000 O   0  0  0  0  0  0  0  0  0  0  0  0
    5.1350   -3.3048    0.0000 O   0  0  0  0  0  0  0  0  0  0  0  0
    5.3966    7.0415    0.0000 O   0  0  0  0  0  0  0  0  0  0  0  0
    6.8671   -5.3048    0.0000 O   0  0  0  0  0  0  0  0  0  0  0  0
    7.7158    5.7681    0.0000 O   0  0  0  0  0  0  0  0  0  0  0  0
    5.1350   -6.3048    0.0000 O   0  0  0  0  0  0  0  0  0  0  0  0
    8.3298    7.6715    0.0000 O   0  0  0  0  0  0  0  0  0  0  0  0
    3.4030   -5.3048    0.0000 O   0  0  0  0  0  0  0  0  0  0  0  0
    6.9884    9.1550    0.0000 O   0  0  0  0  0  0  0  0  0  0  0  0
    6.0010   -6.8048    0.0000 O   0  0  0  0  0  0  0  0  0  0  0  0
    2.5369   -3.8048    0.0000 O   0  0  0  0  0  0  0  0  0  0  0  0
    4.0552    8.5250    0.0000 O   0  0  0  0  0  0  0  0  0  0  0  0
    8.5991   -6.3048    0.0000 O   0  0  0  0  0  0  0  0  0  0  0  0
    8.5991   -8.3048    0.0000 O   0  0  0  0  0  0  0  0  0  0  0  0
    6.8671   -9.3048    0.0000 O   0  0  0  0  0  0  0  0  0  0  0  0
    4.2690   -7.8048    0.0000 O   0  0  0  0  0  0  0  0  0  0  0  0
    7.7681    1.3954    0.0000 C   0  0  1  0  0  0  0  0  0  0  0  0
    7.7643    2.3954    0.0000 C   0  0  1  0  0  0  0  0  0  0  0  0
    6.9040    0.8921    0.0000 C   0  0  1  0  0  0  0  0  0  0  0  0
    6.8920   -0.1495    0.0000 C   0  0  2  0  0  0  0  0  0  0  0  0
    6.8963    2.8920    0.0000 C   0  0  1  0  0  0  0  0  0  0  0  0
    7.7920   -0.6738    0.0000 C   0  0  1  0  0  0  0  0  0  0  0  0
    8.6801    0.8921    0.0000 C   0  0  0  0  0  0  0  0  0  0  0  0
    7.1018    3.8647    0.0000 C   0  0  2  0  0  0  0  0  0  0  0  0
    6.0361    1.3887    0.0000 C   0  0  0  0  0  0  0  0  0  0  0  0
    6.0322    2.3887    0.0000 C   0  0  1  0  0  0  0  0  0  0  0  0
    8.4987    3.0653    0.0000 C   0  0  0  0  0  0  0  0  0  0  0  0
    8.6921   -0.1495    0.0000 C   0  0  0  0  0  0  0  0  0  0  0  0
    7.8046   -1.7587    0.0000 C   0  0  0  0  0  0  0  0  0  0  0  0
    8.0901    3.9715    0.0000 C   0  0  0  0  0  0  0  0  0  0  0  0
    5.9421   -0.6738    0.0000 C   0  0  0  0  0  0  0  0  0  0  0  0
    8.7522    1.5728    0.0000 C   0  0  0  0  0  0  0  0  0  0  0  0
    8.7497    2.2255    0.0000 C   0  0  0  0  0  0  0  0  0  0  0  0
    6.0279    0.3538    0.0000 C   0  0  0  0  0  0  0  0  0  0  0  0
    6.8671   -2.3048    0.0000 C   0  0  2  0  0  0  0  0  0  0  0  0
    6.4311    4.6064    0.0000 C   0  0  2  0  0  0  0  0  0  0  0  0
    5.9295   -1.7587    0.0000 C   0  0  0  0  0  0  0  0  0  0  0  0
    8.8046   -1.7510    0.0000 C   0  0  0  0  0  0  0  0  0  0  0  0
    8.3113   -2.6208    0.0000 C   0  0  0  0  0  0  0  0  0  0  0  0
    7.1728    5.2771    0.0000 C   0  0  0  0  0  0  0  0  0  0  0  0
    5.6894    3.9357    0.0000 C   0  0  0  0  0  0  0  0  0  0  0  0
    8.1245    4.9701    0.0000 C   0  0  0  0  0  0  0  0  0  0  0  0
    6.0010   -3.8048    0.0000 C   0  0  2  0  0  0  0  0  0  0  0  0
    6.0674    6.2998    0.0000 C   0  0  2  0  0  0  0  0  0  0  0  0
    6.0010   -4.8048    0.0000 C   0  0  1  0  0  0  0  0  0  0  0  0
    7.0451    6.5098    0.0000 C   0  0  1  0  0  0  0  0  0  0  0  0
    8.8662    5.6408    0.0000 C   0  0  0  0  0  0  0  0  0  0  0  0
    5.1350   -5.3048    0.0000 C   0  0  2  0  0  0  0  0  0  0  0  0
    7.3521    7.4615    0.0000 C   0  0  2  0  0  0  0  0  0  0  0  0
    4.2690   -3.8048    0.0000 C   0  0  1  0  0  0  0  0  0  0  0  0
    5.7036    7.9932    0.0000 C   0  0  1  0  0  0  0  0  0  0  0  0
    4.2690   -4.8048    0.0000 C   0  0  1  0  0  0  0  0  0  0  0  0
    6.6814    8.2032    0.0000 C   0  0  1  0  0  0  0  0  0  0  0  0
    9.8179    5.3338    0.0000 C   0  0  0  0  0  0  0  0  0  0  0  0
    3.4030   -3.3048    0.0000 C   0  0  0  0  0  0  0  0  0  0  0  0
    5.0329    8.7350    0.0000 C   0  0  0  0  0  0  0  0  0  0  0  0
    6.8671   -6.3048    0.0000 C   0  0  2  0  0  0  0  0  0  0  0  0
   10.5597    6.0045    0.0000 C   0  0  0  0  0  0  0  0  0  0  0  0
   10.0279    4.3561    0.0000 C   0  0  0  0  0  0  0  0  0  0  0  0
    7.7331   -6.8048    0.0000 C   0  0  1  0  0  0  0  0  0  0  0  0
    7.7331   -7.8048    0.0000 C   0  0  2  0  0  0  0  0  0  0  0  0
    6.0010   -7.8048    0.0000 C   0  0  1  0  0  0  0  0  0  0  0  0
    6.8671   -8.3048    0.0000 C   0  0  1  0  0  0  0  0  0  0  0  0
    5.1350   -8.3048    0.0000 C   0  0  0  0  0  0  0  0  0  0  0  0
    7.6385    0.4642    0.0000 H   0  0  0  0  0  0  0  0  0  0  0  0
    6.2074    3.3899    0.0000 H   0  0  0  0  0  0  0  0  0  0  0  0
    8.5314   -1.0931    0.0000 H   0  0  0  0  0  0  0  0  0  0  0  0
    9.2921    0.7930    0.0000 H   0  0  0  0  0  0  0  0  0  0  0  0
    8.8824    1.4781    0.0000 H   0  0  0  0  0  0  0  0  0  0  0  0
    7.4044    4.6590    0.0000 H   0  0  0  0  0  0  0  0  0  0  0  0
    5.4251    1.4940    0.0000 H   0  0  0  0  0  0  0  0  0  0  0  0
    5.8263    0.8053    0.0000 H   0  0  0  0  0  0  0  0  0  0  0  0
    6.0298    3.0087    0.0000 H   0  0  0  0  0  0  0  0  0  0  0  0
    8.8661    2.5659    0.0000 H   0  0  0  0  0  0  0  0  0  0  0  0
    9.0340    3.3782    0.0000 H   0  0  0  0  0  0  0  0  0  0  0  0
    8.9079   -0.7307    0.0000 H   0  0  0  0  0  0  0  0  0  0  0  0
    9.3017   -0.0363    0.0000 H   0  0  0  0  0  0  0  0  0  0  0  0
    8.6790    4.1656    0.0000 H   0  0  0  0  0  0  0  0  0  0  0  0
    7.9590    4.5775    0.0000 H   0  0  0  0  0  0  0  0  0  0  0  0
    5.7398   -0.0877    0.0000 H   0  0  0  0  0  0  0  0  0  0  0  0
    5.3300   -0.7728    0.0000 H   0  0  0  0  0  0  0  0  0  0  0  0
    8.8623    0.9627    0.0000 H   0  0  0  0  0  0  0  0  0  0  0  0
    9.3624    1.6829    0.0000 H   0  0  0  0  0  0  0  0  0  0  0  0
    8.6422    2.1830    0.0000 H   0  0  0  0  0  0  0  0  0  0  0  0
    8.6444    1.6146    0.0000 H   0  0  0  0  0  0  0  0  0  0  0  0
    9.3607    2.1202    0.0000 H   0  0  0  0  0  0  0  0  0  0  0  0
    8.8550    2.8365    0.0000 H   0  0  0  0  0  0  0  0  0  0  0  0
    6.3400    0.8896    0.0000 H   0  0  0  0  0  0  0  0  0  0  0  0
    5.4922    0.6659    0.0000 H   0  0  0  0  0  0  0  0  0  0  0  0
    5.7158   -0.1819    0.0000 H   0  0  0  0  0  0  0  0  0  0  0  0
    7.4046   -2.6138    0.0000 H   0  0  0  0  0  0  0  0  0  0  0  0
    5.3199   -1.6456    0.0000 H   0  0  0  0  0  0  0  0  0  0  0  0
    5.7137   -2.3399    0.0000 H   0  0  0  0  0  0  0  0  0  0  0  0
    7.7767   -2.9350    0.0000 H   0  0  0  0  0  0  0  0  0  0  0  0
    8.8094   -2.3710    0.0000 H   0  0  0  0  0  0  0  0  0  0  0  0
    9.4246   -1.7462    0.0000 H   0  0  0  0  0  0  0  0  0  0  0  0
    8.7998   -1.1310    0.0000 H   0  0  0  0  0  0  0  0  0  0  0  0
    8.6254   -3.1554    0.0000 H   0  0  0  0  0  0  0  0  0  0  0  0
    8.8458   -2.3067    0.0000 H   0  0  0  0  0  0  0  0  0  0  0  0
    4.6286    2.5733    0.0000 H   0  0  0  0  0  0  0  0  0  0  0  0
    7.4627    5.8251    0.0000 H   0  0  0  0  0  0  0  0  0  0  0  0
    6.6834    5.6578    0.0000 H   0  0  0  0  0  0  0  0  0  0  0  0
    5.2735    4.3956    0.0000 H   0  0  0  0  0  0  0  0  0  0  0  0
    5.2295    3.5198    0.0000 H   0  0  0  0  0  0  0  0  0  0  0  0
    6.1052    3.4758    0.0000 H   0  0  0  0  0  0  0  0  0  0  0  0
    7.8346    4.4221    0.0000 H   0  0  0  0  0  0  0  0  0  0  0  0
    8.6139    4.5894    0.0000 H   0  0  0  0  0  0  0  0  0  0  0  0
    6.0010   -3.1848    0.0000 H   0  0  0  0  0  0  0  0  0  0  0  0
    6.4832    5.8400    0.0000 H   0  0  0  0  0  0  0  0  0  0  0  0
    6.0010   -5.4248    0.0000 H   0  0  0  0  0  0  0  0  0  0  0  0
    7.6512    6.6400    0.0000 H   0  0  0  0  0  0  0  0  0  0  0  0
    8.7360    6.2470    0.0000 H   0  0  0  0  0  0  0  0  0  0  0  0
    4.5981   -5.6148    0.0000 H   0  0  0  0  0  0  0  0  0  0  0  0
    7.5424    8.0516    0.0000 H   0  0  0  0  0  0  0  0  0  0  0  0
    4.2690   -3.1848    0.0000 H   0  0  0  0  0  0  0  0  0  0  0  0
    5.0975    7.8631    0.0000 H   0  0  0  0  0  0  0  0  0  0  0  0
    3.7320   -4.4948    0.0000 H   0  0  0  0  0  0  0  0  0  0  0  0
    6.2655    8.6631    0.0000 H   0  0  0  0  0  0  0  0  0  0  0  0
    8.3220    5.8983    0.0000 H   0  0  0  0  0  0  0  0  0  0  0  0
    3.8015   -2.8299    0.0000 H   0  0  0  0  0  0  0  0  0  0  0  0
    3.0044   -2.8299    0.0000 H   0  0  0  0  0  0  0  0  0  0  0  0
    5.5580    9.0646    0.0000 H   0  0  0  0  0  0  0  0  0  0  0  0
    4.7995    9.3093    0.0000 H   0  0  0  0  0  0  0  0  0  0  0  0
    7.4040   -5.9948    0.0000 H   0  0  0  0  0  0  0  0  0  0  0  0
    4.5981   -6.6148    0.0000 H   0  0  0  0  0  0  0  0  0  0  0  0
    8.5201    8.2616    0.0000 H   0  0  0  0  0  0  0  0  0  0  0  0
   10.9755    5.5446    0.0000 H   0  0  0  0  0  0  0  0  0  0  0  0
   11.0195    6.4204    0.0000 H   0  0  0  0  0  0  0  0  0  0  0  0
    9.4218    4.2259    0.0000 H   0  0  0  0  0  0  0  0  0  0  0  0
   10.1581    3.7499    0.0000 H   0  0  0  0  0  0  0  0  0  0  0  0
   10.1438    6.4644    0.0000 H   0  0  0  0  0  0  0  0  0  0  0  0
   10.6341    4.4863    0.0000 H   0  0  0  0  0  0  0  0  0  0  0  0
    3.4030   -5.9248    0.0000 H   0  0  0  0  0  0  0  0  0  0  0  0
    6.5725    9.6148    0.0000 H   0  0  0  0  0  0  0  0  0  0  0  0
    8.2700   -7.1148    0.0000 H   0  0  0  0  0  0  0  0  0  0  0  0
    2.0000   -3.4948    0.0000 H   0  0  0  0  0  0  0  0  0  0  0  0
    3.6394    8.9848    0.0000 H   0  0  0  0  0  0  0  0  0  0  0  0
    7.7331   -8.4248    0.0000 H   0  0  0  0  0  0  0  0  0  0  0  0
    5.4641   -7.4948    0.0000 H   0  0  0  0  0  0  0  0  0  0  0  0
    6.3301   -8.6148    0.0000 H   0  0  0  0  0  0  0  0  0  0  0  0
    8.5991   -5.6848    0.0000 H   0  0  0  0  0  0  0  0  0  0  0  0
    4.7365   -8.7798    0.0000 H   0  0  0  0  0  0  0  0  0  0  0  0
    5.5335   -8.7798    0.0000 H   0  0  0  0  0  0  0  0  0  0  0  0
    8.5991   -8.9248    0.0000 H   0  0  0  0  0  0  0  0  0  0  0  0
    6.3301   -9.6148    0.0000 H   0  0  0  0  0  0  0  0  0  0  0  0
    3.7320   -8.1148    0.0000 H   0  0  0  0  0  0  0  0  0  0  0  0
 28  1  1  1  0  0  0
  1102  1  0  0  0  0
 37  2  1  1  0  0  0
 45  2  1  1  0  0  0
 38  3  1  1  0  0  0
 46  3  1  6  0  0  0
  4 45  1  0  0  0  0
  4 52  1  0  0  0  0
  5 46  1  0  0  0  0
  5 53  1  0  0  0  0
 47  6  1  6  0  0  0
 59  6  1  1  0  0  0
 48  7  1  1  0  0  0
  7121  1  0  0  0  0
 50  8  1  1  0  0  0
  8127  1  0  0  0  0
 51  9  1  6  0  0  0
  9128  1  0  0  0  0
 54 10  1  6  0  0  0
 10135  1  0  0  0  0
 55 11  1  1  0  0  0
 11136  1  0  0  0  0
 12 59  1  0  0  0  0
 12 64  1  0  0  0  0
 13 57  1  0  0  0  0
 13138  1  0  0  0  0
 14 58  1  0  0  0  0
 14139  1  0  0  0  0
 62 15  1  6  0  0  0
 15143  1  0  0  0  0
 63 16  1  1  0  0  0
 16146  1  0  0  0  0
 65 17  1  6  0  0  0
 17147  1  0  0  0  0
 18 66  1  0  0  0  0
 18148  1  0  0  0  0
 19 20  1  0  0  0  0
 19 21  1  0  0  0  0
 19 25  1  0  0  0  0
 19 34  1  1  0  0  0
 20 23  1  0  0  0  0
 20 29  1  0  0  0  0
 20 35  1  6  0  0  0
 21 22  1  0  0  0  0
 21 27  1  0  0  0  0
 21 67  1  6  0  0  0
 22 24  1  0  0  0  0
 22 33  1  0  0  0  0
 22 36  1  1  0  0  0
 23 26  1  0  0  0  0
 23 28  1  0  0  0  0
 23 68  1  1  0  0  0
 24 30  1  0  0  0  0
 24 31  1  0  0  0  0
 24 69  1  6  0  0  0
 25 30  1  0  0  0  0
 25 70  1  0  0  0  0
 25 71  1  0  0  0  0
 26 32  1  0  0  0  0
 26 38  1  0  0  0  0
 26 72  1  6  0  0  0
 27 28  1  0  0  0  0
 27 73  1  0  0  0  0
 27 74  1  0  0  0  0
 28 75  1  0  0  0  0
 29 32  1  0  0  0  0
 29 76  1  0  0  0  0
 29 77  1  0  0  0  0
 30 78  1  0  0  0  0
 30 79  1  0  0  0  0
 31 37  1  0  0  0  0
 31 40  1  0  0  0  0
 31 41  1  0  0  0  0
 32 80  1  0  0  0  0
 32 81  1  0  0  0  0
 33 39  1  0  0  0  0
 33 82  1  0  0  0  0
 33 83  1  0  0  0  0
 34 84  1  0  0  0  0
 34 85  1  0  0  0  0
 34 86  1  0  0  0  0
 35 87  1  0  0  0  0
 35 88  1  0  0  0  0
 35 89  1  0  0  0  0
 36 90  1  0  0  0  0
 36 91  1  0  0  0  0
 36 92  1  0  0  0  0
 37 39  1  0  0  0  0
 37 93  1  0  0  0  0
 38 42  1  0  0  0  0
 38 43  1  0  0  0  0
 39 94  1  0  0  0  0
 39 95  1  0  0  0  0
 40 97  1  0  0  0  0
 40 98  1  0  0  0  0
 40 99  1  0  0  0  0
 41 96  1  0  0  0  0
 41100  1  0  0  0  0
 41101  1  0  0  0  0
 42 44  1  0  0  0  0
 42103  1  0  0  0  0
 42104  1  0  0  0  0
 43105  1  0  0  0  0
 43106  1  0  0  0  0
 43107  1  0  0  0  0
 44 49  1  0  0  0  0
 44108  1  0  0  0  0
 44109  1  0  0  0  0
 45 47  1  0  0  0  0
 45110  1  0  0  0  0
 46 48  1  0  0  0  0
 46111  1  0  0  0  0
 47 50  1  0  0  0  0
 47112  1  0  0  0  0
 48 51  1  0  0  0  0
 48113  1  0  0  0  0
 49 56  2  0  0  0  0
 49114  1  0  0  0  0
 50 54  1  0  0  0  0
 50115  1  0  0  0  0
 51 55  1  0  0  0  0
 51116  1  0  0  0  0
 52 54  1  0  0  0  0
 52 57  1  1  0  0  0
 52117  1  0  0  0  0
 53 55  1  0  0  0  0
 53 58  1  6  0  0  0
 53118  1  0  0  0  0
 54119  1  0  0  0  0
 55120  1  0  0  0  0
 56 60  1  0  0  0  0
 56 61  1  0  0  0  0
 57122  1  0  0  0  0
 57123  1  0  0  0  0
 58124  1  0  0  0  0
 58125  1  0  0  0  0
 59 62  1  0  0  0  0
 59126  1  0  0  0  0
 60129  1  0  0  0  0
 60130  1  0  0  0  0
 60133  1  0  0  0  0
 61131  1  0  0  0  0
 61132  1  0  0  0  0
 61134  1  0  0  0  0
 62 63  1  0  0  0  0
 62137  1  0  0  0  0
 63 65  1  0  0  0  0
 63140  1  0  0  0  0
 64 65  1  0  0  0  0
 64 66  1  1  0  0  0
 64141  1  0  0  0  0
 65142  1  0  0  0  0
 66144  1  0  0  0  0
 66145  1  0  0  0  0
M  END
> <PUBCHEM_COMPOUND_CID>
11679800

> <PUBCHEM_COMPOUND_CANONICALIZED>
1

> <PUBCHEM_CACTVS_COMPLEXITY>
1680

> <PUBCHEM_CACTVS_HBOND_ACCEPTOR>
18

> <PUBCHEM_CACTVS_HBOND_DONOR>
12

> <PUBCHEM_CACTVS_ROTATABLE_BOND>
13

> <PUBCHEM_CACTVS_SUBSKEYS>
AAADcfB8PgAAAAAAAAAAAAAAAAAAAYAAAAA0aNECAAAAAGDAAAAAGgAACAAAD1SwgAMCCAAABgCAAiBCAAAAAAAgAAAACAAAAAgREAIAAQAiQAAFgAAPAAPA4PwPgAAAAAAAAADAAAYAADAAAQAACAAAAA==

> <PUBCHEM_IUPAC_OPENEYE_NAME>
(2S,3R,4S,5S,6R)-2-[(2R,3R,4S,5S,6R)-2-[[(3S,5R,8R,9R,10R,12R,13R,14R,17S)-17-[(1S)-1,5-dimethyl-1-[(2S,3R,4S,5S,6R)-3,4,5-trihydroxy-6-(hydroxymethyl)tetrahydropyran-2-yl]oxy-hex-4-enyl]-12-hydroxy-4,4,8,10,14-pentamethyl-2,3,5,6,7,9,11,12,13,15,16,17-dodecahydro-1H-cyclopenta[a]phenanthren-3-yl]oxy]-4,5-dihydroxy-6-(hydroxymethyl)tetrahydropyran-3-yl]oxy-6-(hydroxymethyl)tetrahydropyran-3,4,5-triol

> <PUBCHEM_IUPAC_CAS_NAME>
(2S,3R,4S,5S,6R)-2-[[(2R,3R,4S,5S,6R)-4,5-dihydroxy-6-(hydroxymethyl)-2-[[(3S,5R,8R,9R,10R,12R,13R,14R,17S)-12-hydroxy-4,4,8,10,14-pentamethyl-17-[(2S)-6-methyl-2-[[(2S,3R,4S,5S,6R)-3,4,5-trihydroxy-6-(hydroxymethyl)-2-oxanyl]oxy]hept-5-en-2-yl]-2,3,5,6,7,9,11,12,13,15,16,17-dodecahydro-1H-cyclopenta[a]phenanthren-3-yl]oxy]-3-oxanyl]oxy]-6-(hydroxymethyl)oxane-3,4,5-triol

> <PUBCHEM_IUPAC_NAME>
(2S,3R,4S,5S,6R)-2-[(2R,3R,4S,5S,6R)-4,5-dihydroxy-6-(hydroxymethyl)-2-[[(3S,5R,8R,9R,10R,12R,13R,14R,17S)-12-hydroxy-4,4,8,10,14-pentamethyl-17-[(2S)-6-methyl-2-[(2S,3R,4S,5S,6R)-3,4,5-trihydroxy-6-(hydroxymethyl)oxan-2-yl]oxyhept-5-en-2-yl]-2,3,5,6,7,9,11,12,13,15,16,17-dodecahydro-1H-cyclopenta[a]phenanthren-3-yl]oxy]oxan-3-yl]oxy-6-(hydroxymethyl)oxane-3,4,5-triol

> <PUBCHEM_IUPAC_SYSTEMATIC_NAME>
(2R,3S,4S,5R,6S)-2-(hydroxymethyl)-6-[(2R,3R,4S,5S,6R)-6-(hydroxymethyl)-2-[[(3S,5R,8R,9R,10R,12R,13R,14R,17S)-17-[(2S)-2-[(2S,3R,4S,5S,6R)-6-(hydroxymethyl)-3,4,5-tris(oxidanyl)oxan-2-yl]oxy-6-methyl-hept-5-en-2-yl]-4,4,8,10,14-pentamethyl-12-oxidanyl-2,3,5,6,7,9,11,12,13,15,16,17-dodecahydro-1H-cyclopenta[a]phenanthren-3-yl]oxy]-4,5-bis(oxidanyl)oxan-3-yl]oxy-oxane-3,4,5-triol

> <PUBCHEM_IUPAC_TRADITIONAL_NAME>
(2S,3R,4S,5S,6R)-2-[(2R,3R,4S,5S,6R)-2-[[(3S,5R,8R,9R,10R,12R,13R,14R,17S)-17-[(1S)-1,5-dimethyl-1-[(2S,3R,4S,5S,6R)-3,4,5-trihydroxy-6-methylol-tetrahydropyran-2-yl]oxy-hex-4-enyl]-12-hydroxy-4,4,8,10,14-pentamethyl-2,3,5,6,7,9,11,12,13,15,16,17-dodecahydro-1H-cyclopenta[a]phenanthren-3-yl]oxy]-4,5-dihydroxy-6-methylol-tetrahydropyran-3-yl]oxy-6-methylol-tetrahydropyran-3,4,5-triol

> <PUBCHEM_IUPAC_INCHI>
InChI=1S/C48H82O18/c1-22(2)10-9-14-48(8,66-42-39(60)36(57)33(54)26(20-50)62-42)23-11-16-47(7)31(23)24(52)18-29-45(5)15-13-30(44(3,4)28(45)12-17-46(29,47)6)64-43-40(37(58)34(55)27(21-51)63-43)65-41-38(59)35(56)32(53)25(19-49)61-41/h10,23-43,49-60H,9,11-21H2,1-8H3/t23-,24+,25+,26+,27+,28-,29+,30-,31-,32+,33+,34+,35-,36-,37-,38+,39+,40+,41-,42-,43-,45-,46+,47+,48-/m0/s1

> <PUBCHEM_IUPAC_INCHIKEY>
RLDVZILFNVRJTL-IWFVLDDISA-N

> <PUBCHEM_XLOGP3_AA>
2.4

> <PUBCHEM_EXACT_MASS>
946.55

> <PUBCHEM_MOLECULAR_FORMULA>
C48H82O18

> <PUBCHEM_MOLECULAR_WEIGHT>
947.166

> <PUBCHEM_OPENEYE_CAN_SMILES>
CC(=CCCC(C)(C1CCC2(C1C(CC3C2(CCC4C3(CCC(C4(C)C)OC5C(C(C(C(O5)CO)O)O)OC6C(C(C(C(O6)CO)O)O)O)C)C)O)C)OC7C(C(C(C(O7)CO)O)O)O)C

> <PUBCHEM_OPENEYE_ISO_SMILES>
CC(=CCC[C@@](C)([C@H]1CC[C@@]2([C@@H]1[C@@H](C[C@H]3[C@]2(CC[C@@H]4[C@@]3(CC[C@@H](C4(C)C)O[C@H]5[C@@H]([C@H]([C@@H]([C@H](O5)CO)O)O)O[C@H]6[C@@H]([C@H]([C@@H]([C@H](O6)CO)O)O)O)C)C)O)C)O[C@H]7[C@@H]([C@H]([C@@H]([C@H](O7)CO)O)O)O)C

> <PUBCHEM_CACTVS_TPSA>
298

> <PUBCHEM_MONOISOTOPIC_WEIGHT>
946.55

> <PUBCHEM_TOTAL_CHARGE>
0

> <PUBCHEM_HEAVY_ATOM_COUNT>
66

> <PUBCHEM_ATOM_DEF_STEREO_COUNT>
25

> <PUBCHEM_ATOM_UDEF_STEREO_COUNT>
0

> <PUBCHEM_BOND_DEF_STEREO_COUNT>
0

> <PUBCHEM_BOND_UDEF_STEREO_COUNT>
0

> <PUBCHEM_ISOTOPIC_ATOM_COUNT>
0

> <PUBCHEM_COMPONENT_COUNT>
1

> <PUBCHEM_CACTVS_TAUTO_COUNT>
1

> <PUBCHEM_COORDINATE_TYPE>
1
5
255

> <PUBCHEM_BONDANNOTATIONS>
28  1  5
54  10  6
55  11  5
62  15  6
63  16  5
65  17  6
19  34  5
37  2  5
45  2  5
20  35  6
21  67  6
22  36  5
23  68  5
24  69  6
26  72  6
38  3  5
46  3  6
52  57  5
53  58  6
47  6  6
59  6  5
64  66  5
48  7  5
50  8  5
51  9  6

$$$$
