101945295
  -OEChem-12071809302D

190197  0     1  0  0  0  0  0999 V2000
    9.8235    1.5069    0.0000 O   0  0  0  0  0  0  0  0  0  0  0  0
   11.5263   -4.6833    0.0000 O   0  0  0  0  0  0  0  0  0  0  0  0
   10.4196    3.9697    0.0000 O   0  0  0  0  0  0  0  0  0  0  0  0
    9.7942   -4.6833    0.0000 O   0  0  0  0  0  0  0  0  0  0  0  0
   10.0559    5.6631    0.0000 O   0  0  0  0  0  0  0  0  0  0  0  0
   11.5263   -6.6833    0.0000 O   0  0  0  0  0  0  0  0  0  0  0  0
   12.3750    4.3896    0.0000 O   0  0  0  0  0  0  0  0  0  0  0  0
    9.7942   -7.6833    0.0000 O   0  0  0  0  0  0  0  0  0  0  0  0
   12.9890    6.2931    0.0000 O   0  0  0  0  0  0  0  0  0  0  0  0
    8.0622   -6.6833    0.0000 O   0  0  0  0  0  0  0  0  0  0  0  0
   11.6476    7.7765    0.0000 O   0  0  0  0  0  0  0  0  0  0  0  0
    8.7144    7.1465    0.0000 O   0  0  0  0  0  0  0  0  0  0  0  0
   10.6603   -8.1833    0.0000 O   0  0  0  0  0  0  0  0  0  0  0  0
    7.1962   -5.1833    0.0000 O   0  0  0  0  0  0  0  0  0  0  0  0
   13.2583   -7.6833    0.0000 O   0  0  0  0  0  0  0  0  0  0  0  0
   13.2583   -9.6833    0.0000 O   0  0  0  0  0  0  0  0  0  0  0  0
    7.0660    7.6783    0.0000 O   0  0  0  0  0  0  0  0  0  0  0  0
   11.5263  -10.6833    0.0000 O   0  0  0  0  0  0  0  0  0  0  0  0
    8.9282   -9.1833    0.0000 O   0  0  0  0  0  0  0  0  0  0  0  0
    9.3284    9.0500    0.0000 O   0  0  0  0  0  0  0  0  0  0  0  0
    7.9870   10.5334    0.0000 O   0  0  0  0  0  0  0  0  0  0  0  0
    6.0316   10.1134    0.0000 O   0  0  0  0  0  0  0  0  0  0  0  0
    5.1106    7.2583    0.0000 O   0  0  0  0  0  0  0  0  0  0  0  0
    8.0622  -10.6833    0.0000 O   0  0  0  0  0  0  0  0  0  0  0  0
   12.4273    0.0170    0.0000 C   0  0  1  0  0  0  0  0  0  0  0  0
   12.4235    1.0169    0.0000 C   0  0  1  0  0  0  0  0  0  0  0  0
   11.5632   -0.4864    0.0000 C   0  0  1  0  0  0  0  0  0  0  0  0
   11.5512   -1.5279    0.0000 C   0  0  2  0  0  0  0  0  0  0  0  0
   11.5555    1.5136    0.0000 C   0  0  1  0  0  0  0  0  0  0  0  0
   12.4513   -2.0522    0.0000 C   0  0  1  0  0  0  0  0  0  0  0  0
   13.3393   -0.4864    0.0000 C   0  0  0  0  0  0  0  0  0  0  0  0
   11.7610    2.4862    0.0000 C   0  0  2  0  0  0  0  0  0  0  0  0
   10.6953    0.0103    0.0000 C   0  0  0  0  0  0  0  0  0  0  0  0
   10.6914    1.0103    0.0000 C   0  0  1  0  0  0  0  0  0  0  0  0
   13.1579    1.6869    0.0000 C   0  0  0  0  0  0  0  0  0  0  0  0
   13.3513   -1.5279    0.0000 C   0  0  0  0  0  0  0  0  0  0  0  0
   12.4638   -3.1372    0.0000 C   0  0  0  0  0  0  0  0  0  0  0  0
   12.7493    2.5931    0.0000 C   0  0  0  0  0  0  0  0  0  0  0  0
   10.6013   -2.0522    0.0000 C   0  0  0  0  0  0  0  0  0  0  0  0
   13.4115    0.1944    0.0000 C   0  0  0  0  0  0  0  0  0  0  0  0
   13.4090    0.8471    0.0000 C   0  0  0  0  0  0  0  0  0  0  0  0
   10.6871   -1.0246    0.0000 C   0  0  0  0  0  0  0  0  0  0  0  0
   11.5263   -3.6833    0.0000 C   0  0  2  0  0  0  0  0  0  0  0  0
   11.0903    3.2279    0.0000 C   0  0  2  0  0  0  0  0  0  0  0  0
   10.5887   -3.1372    0.0000 C   0  0  0  0  0  0  0  0  0  0  0  0
   13.4638   -3.1294    0.0000 C   0  0  0  0  0  0  0  0  0  0  0  0
   12.9705   -3.9993    0.0000 C   0  0  0  0  0  0  0  0  0  0  0  0
   11.8320    3.8986    0.0000 C   0  0  0  0  0  0  0  0  0  0  0  0
   10.3486    2.5572    0.0000 C   0  0  0  0  0  0  0  0  0  0  0  0
   12.7837    3.5916    0.0000 C   0  0  0  0  0  0  0  0  0  0  0  0
   10.6603   -5.1833    0.0000 C   0  0  2  0  0  0  0  0  0  0  0  0
   10.7266    4.9214    0.0000 C   0  0  2  0  0  0  0  0  0  0  0  0
   10.6603   -6.1833    0.0000 C   0  0  1  0  0  0  0  0  0  0  0  0
   11.7043    5.1314    0.0000 C   0  0  1  0  0  0  0  0  0  0  0  0
   13.5254    4.2624    0.0000 C   0  0  0  0  0  0  0  0  0  0  0  0
    9.7942   -6.6833    0.0000 C   0  0  2  0  0  0  0  0  0  0  0  0
   12.0113    6.0831    0.0000 C   0  0  2  0  0  0  0  0  0  0  0  0
    8.9282   -5.1833    0.0000 C   0  0  1  0  0  0  0  0  0  0  0  0
   10.3629    6.6148    0.0000 C   0  0  1  0  0  0  0  0  0  0  0  0
    8.9282   -6.1833    0.0000 C   0  0  1  0  0  0  0  0  0  0  0  0
   11.3406    6.8248    0.0000 C   0  0  1  0  0  0  0  0  0  0  0  0
   14.4772    3.9554    0.0000 C   0  0  0  0  0  0  0  0  0  0  0  0
    8.0622   -4.6833    0.0000 C   0  0  0  0  0  0  0  0  0  0  0  0
    9.6922    7.3565    0.0000 C   0  0  0  0  0  0  0  0  0  0  0  0
   11.5263   -7.6833    0.0000 C   0  0  2  0  0  0  0  0  0  0  0  0
   15.2189    4.6261    0.0000 C   0  0  0  0  0  0  0  0  0  0  0  0
   14.6871    2.9777    0.0000 C   0  0  0  0  0  0  0  0  0  0  0  0
   12.3923   -8.1833    0.0000 C   0  0  1  0  0  0  0  0  0  0  0  0
   12.3923   -9.1833    0.0000 C   0  0  2  0  0  0  0  0  0  0  0  0
   10.6603   -9.1833    0.0000 C   0  0  1  0  0  0  0  0  0  0  0  0
   11.5263   -9.6833    0.0000 C   0  0  1  0  0  0  0  0  0  0  0  0
    8.0438    7.8883    0.0000 C   0  0  2  0  0  0  0  0  0  0  0  0
    9.7942   -9.6833    0.0000 C   0  0  0  0  0  0  0  0  0  0  0  0
    8.3507    8.8400    0.0000 C   0  0  1  0  0  0  0  0  0  0  0  0
    7.6800    9.5817    0.0000 C   0  0  2  0  0  0  0  0  0  0  0  0
    6.3953    8.4200    0.0000 C   0  0  1  0  0  0  0  0  0  0  0  0
    6.7023    9.3717    0.0000 C   0  0  1  0  0  0  0  0  0  0  0  0
    5.4176    8.2100    0.0000 C   0  0  0  0  0  0  0  0  0  0  0  0
    8.0622   -9.6833    0.0000 C   0  0  0  0  0  0  0  0  0  0  0  0
    7.1962   -9.1833    0.0000 C   0  0  0  0  0  0  0  0  0  0  0  0
    6.3301   -9.6833    0.0000 C   0  0  0  0  0  0  0  0  0  0  0  0
    5.4641   -9.1833    0.0000 C   0  0  0  0  0  0  0  0  0  0  0  0
    4.5981   -9.6833    0.0000 C   0  0  0  0  0  0  0  0  0  0  0  0
    3.7320   -9.1833    0.0000 C   0  0  0  0  0  0  0  0  0  0  0  0
    2.8660   -9.6833    0.0000 C   0  0  0  0  0  0  0  0  0  0  0  0
    2.0000   -9.1833    0.0000 C   0  0  0  0  0  0  0  0  0  0  0  0
   12.2977   -0.9142    0.0000 H   0  0  0  0  0  0  0  0  0  0  0  0
   10.8666    2.0115    0.0000 H   0  0  0  0  0  0  0  0  0  0  0  0
   13.1906   -2.4716    0.0000 H   0  0  0  0  0  0  0  0  0  0  0  0
   13.9513   -0.5854    0.0000 H   0  0  0  0  0  0  0  0  0  0  0  0
   13.5416    0.0997    0.0000 H   0  0  0  0  0  0  0  0  0  0  0  0
   12.0636    3.2805    0.0000 H   0  0  0  0  0  0  0  0  0  0  0  0
   10.0843    0.1156    0.0000 H   0  0  0  0  0  0  0  0  0  0  0  0
   10.4855   -0.5731    0.0000 H   0  0  0  0  0  0  0  0  0  0  0  0
   10.1557    0.6982    0.0000 H   0  0  0  0  0  0  0  0  0  0  0  0
   13.5253    1.1874    0.0000 H   0  0  0  0  0  0  0  0  0  0  0  0
   13.6932    1.9997    0.0000 H   0  0  0  0  0  0  0  0  0  0  0  0
   13.5671   -2.1092    0.0000 H   0  0  0  0  0  0  0  0  0  0  0  0
   13.9609   -1.4148    0.0000 H   0  0  0  0  0  0  0  0  0  0  0  0
   13.3382    2.7871    0.0000 H   0  0  0  0  0  0  0  0  0  0  0  0
   12.6182    3.1991    0.0000 H   0  0  0  0  0  0  0  0  0  0  0  0
   10.3990   -1.4662    0.0000 H   0  0  0  0  0  0  0  0  0  0  0  0
    9.9892   -2.1512    0.0000 H   0  0  0  0  0  0  0  0  0  0  0  0
   13.5215   -0.4158    0.0000 H   0  0  0  0  0  0  0  0  0  0  0  0
   14.0216    0.3044    0.0000 H   0  0  0  0  0  0  0  0  0  0  0  0
   13.3015    0.8046    0.0000 H   0  0  0  0  0  0  0  0  0  0  0  0
   13.3036    0.2361    0.0000 H   0  0  0  0  0  0  0  0  0  0  0  0
   14.0199    0.7418    0.0000 H   0  0  0  0  0  0  0  0  0  0  0  0
   13.5143    1.4581    0.0000 H   0  0  0  0  0  0  0  0  0  0  0  0
   10.9992   -0.4889    0.0000 H   0  0  0  0  0  0  0  0  0  0  0  0
   10.1514   -0.7125    0.0000 H   0  0  0  0  0  0  0  0  0  0  0  0
   10.3750   -1.5603    0.0000 H   0  0  0  0  0  0  0  0  0  0  0  0
   12.0638   -3.9922    0.0000 H   0  0  0  0  0  0  0  0  0  0  0  0
    9.9792   -3.0240    0.0000 H   0  0  0  0  0  0  0  0  0  0  0  0
   10.3730   -3.7184    0.0000 H   0  0  0  0  0  0  0  0  0  0  0  0
   13.4686   -3.7494    0.0000 H   0  0  0  0  0  0  0  0  0  0  0  0
   14.0838   -3.1247    0.0000 H   0  0  0  0  0  0  0  0  0  0  0  0
   12.4359   -4.3134    0.0000 H   0  0  0  0  0  0  0  0  0  0  0  0
   13.2846   -4.5338    0.0000 H   0  0  0  0  0  0  0  0  0  0  0  0
   13.5050   -3.6852    0.0000 H   0  0  0  0  0  0  0  0  0  0  0  0
   13.4590   -2.5095    0.0000 H   0  0  0  0  0  0  0  0  0  0  0  0
    9.2878    1.1949    0.0000 H   0  0  0  0  0  0  0  0  0  0  0  0
   12.1219    4.4467    0.0000 H   0  0  0  0  0  0  0  0  0  0  0  0
   11.3426    4.2793    0.0000 H   0  0  0  0  0  0  0  0  0  0  0  0
    9.9327    3.0171    0.0000 H   0  0  0  0  0  0  0  0  0  0  0  0
    9.8887    2.1414    0.0000 H   0  0  0  0  0  0  0  0  0  0  0  0
   10.7644    2.0974    0.0000 H   0  0  0  0  0  0  0  0  0  0  0  0
   12.4938    3.0436    0.0000 H   0  0  0  0  0  0  0  0  0  0  0  0
   13.2731    3.2110    0.0000 H   0  0  0  0  0  0  0  0  0  0  0  0
   11.1972   -5.4933    0.0000 H   0  0  0  0  0  0  0  0  0  0  0  0
   11.1424    4.4615    0.0000 H   0  0  0  0  0  0  0  0  0  0  0  0
   10.6603   -6.8033    0.0000 H   0  0  0  0  0  0  0  0  0  0  0  0
   12.3105    5.2616    0.0000 H   0  0  0  0  0  0  0  0  0  0  0  0
   13.3953    4.8685    0.0000 H   0  0  0  0  0  0  0  0  0  0  0  0
    9.2573   -6.9933    0.0000 H   0  0  0  0  0  0  0  0  0  0  0  0
   12.2016    6.6731    0.0000 H   0  0  0  0  0  0  0  0  0  0  0  0
    8.9282   -4.5633    0.0000 H   0  0  0  0  0  0  0  0  0  0  0  0
    9.7567    6.4846    0.0000 H   0  0  0  0  0  0  0  0  0  0  0  0
    8.3913   -5.8733    0.0000 H   0  0  0  0  0  0  0  0  0  0  0  0
   10.9247    7.2847    0.0000 H   0  0  0  0  0  0  0  0  0  0  0  0
   12.9812    4.5198    0.0000 H   0  0  0  0  0  0  0  0  0  0  0  0
    8.4607   -4.2083    0.0000 H   0  0  0  0  0  0  0  0  0  0  0  0
    7.6636   -4.2083    0.0000 H   0  0  0  0  0  0  0  0  0  0  0  0
   10.2172    7.6862    0.0000 H   0  0  0  0  0  0  0  0  0  0  0  0
    9.4587    7.9309    0.0000 H   0  0  0  0  0  0  0  0  0  0  0  0
   12.0632   -7.3733    0.0000 H   0  0  0  0  0  0  0  0  0  0  0  0
    9.2573   -7.9933    0.0000 H   0  0  0  0  0  0  0  0  0  0  0  0
   13.1793    6.8831    0.0000 H   0  0  0  0  0  0  0  0  0  0  0  0
   14.0810    2.8475    0.0000 H   0  0  0  0  0  0  0  0  0  0  0  0
   14.8173    2.3715    0.0000 H   0  0  0  0  0  0  0  0  0  0  0  0
   15.2933    3.1078    0.0000 H   0  0  0  0  0  0  0  0  0  0  0  0
   15.6347    4.1662    0.0000 H   0  0  0  0  0  0  0  0  0  0  0  0
   15.6787    5.0419    0.0000 H   0  0  0  0  0  0  0  0  0  0  0  0
   14.8030    5.0859    0.0000 H   0  0  0  0  0  0  0  0  0  0  0  0
    8.0622   -7.3033    0.0000 H   0  0  0  0  0  0  0  0  0  0  0  0
   11.2317    8.2364    0.0000 H   0  0  0  0  0  0  0  0  0  0  0  0
   12.9292   -8.4933    0.0000 H   0  0  0  0  0  0  0  0  0  0  0  0
    6.6592   -4.8733    0.0000 H   0  0  0  0  0  0  0  0  0  0  0  0
   12.3923   -9.8033    0.0000 H   0  0  0  0  0  0  0  0  0  0  0  0
   10.1233   -8.8733    0.0000 H   0  0  0  0  0  0  0  0  0  0  0  0
   10.9893   -9.9933    0.0000 H   0  0  0  0  0  0  0  0  0  0  0  0
    7.8534    7.2982    0.0000 H   0  0  0  0  0  0  0  0  0  0  0  0
   13.2583   -7.0633    0.0000 H   0  0  0  0  0  0  0  0  0  0  0  0
    9.3957  -10.1582    0.0000 H   0  0  0  0  0  0  0  0  0  0  0  0
   10.1928  -10.1582    0.0000 H   0  0  0  0  0  0  0  0  0  0  0  0
    8.5411    9.4300    0.0000 H   0  0  0  0  0  0  0  0  0  0  0  0
   13.2583  -10.3033    0.0000 H   0  0  0  0  0  0  0  0  0  0  0  0
   10.9893  -10.9933    0.0000 H   0  0  0  0  0  0  0  0  0  0  0  0
    7.2642   10.0416    0.0000 H   0  0  0  0  0  0  0  0  0  0  0  0
    6.2050    7.8299    0.0000 H   0  0  0  0  0  0  0  0  0  0  0  0
    6.0962    9.2415    0.0000 H   0  0  0  0  0  0  0  0  0  0  0  0
    9.5188    9.6400    0.0000 H   0  0  0  0  0  0  0  0  0  0  0  0
    5.3947    8.8296    0.0000 H   0  0  0  0  0  0  0  0  0  0  0  0
    4.8035    8.2950    0.0000 H   0  0  0  0  0  0  0  0  0  0  0  0
    7.5712   10.9933    0.0000 H   0  0  0  0  0  0  0  0  0  0  0  0
    5.4254    9.9832    0.0000 H   0  0  0  0  0  0  0  0  0  0  0  0
    4.5045    7.1281    0.0000 H   0  0  0  0  0  0  0  0  0  0  0  0
    7.1962   -8.5633    0.0000 H   0  0  0  0  0  0  0  0  0  0  0  0
    6.3301  -10.3033    0.0000 H   0  0  0  0  0  0  0  0  0  0  0  0
    5.8626   -8.7083    0.0000 H   0  0  0  0  0  0  0  0  0  0  0  0
    5.0656   -8.7083    0.0000 H   0  0  0  0  0  0  0  0  0  0  0  0
    4.1996  -10.1582    0.0000 H   0  0  0  0  0  0  0  0  0  0  0  0
    4.9966  -10.1582    0.0000 H   0  0  0  0  0  0  0  0  0  0  0  0
    4.1306   -8.7083    0.0000 H   0  0  0  0  0  0  0  0  0  0  0  0
    3.3335   -8.7083    0.0000 H   0  0  0  0  0  0  0  0  0  0  0  0
    2.4675  -10.1582    0.0000 H   0  0  0  0  0  0  0  0  0  0  0  0
    3.2646  -10.1582    0.0000 H   0  0  0  0  0  0  0  0  0  0  0  0
    2.3100   -8.6463    0.0000 H   0  0  0  0  0  0  0  0  0  0  0  0
    1.4631   -8.8733    0.0000 H   0  0  0  0  0  0  0  0  0  0  0  0
    1.6900   -9.7202    0.0000 H   0  0  0  0  0  0  0  0  0  0  0  0
 34  1  1  1  0  0  0
  1122  1  0  0  0  0
 43  2  1  1  0  0  0
 51  2  1  1  0  0  0
 44  3  1  1  0  0  0
 52  3  1  6  0  0  0
  4 51  1  0  0  0  0
  4 58  1  0  0  0  0
  5 52  1  0  0  0  0
  5 59  1  0  0  0  0
 53  6  1  6  0  0  0
 65  6  1  1  0  0  0
 54  7  1  1  0  0  0
  7141  1  0  0  0  0
 56  8  1  1  0  0  0
  8147  1  0  0  0  0
 57  9  1  6  0  0  0
  9148  1  0  0  0  0
 60 10  1  6  0  0  0
 10155  1  0  0  0  0
 61 11  1  1  0  0  0
 11156  1  0  0  0  0
 12 64  1  0  0  0  0
 72 12  1  6  0  0  0
 13 65  1  0  0  0  0
 13 70  1  0  0  0  0
 14 63  1  0  0  0  0
 14158  1  0  0  0  0
 68 15  1  6  0  0  0
 15163  1  0  0  0  0
 69 16  1  1  0  0  0
 16167  1  0  0  0  0
 17 72  1  0  0  0  0
 17 76  1  0  0  0  0
 71 18  1  6  0  0  0
 18168  1  0  0  0  0
 19 73  1  0  0  0  0
 19 79  1  0  0  0  0
 74 20  1  1  0  0  0
 20172  1  0  0  0  0
 75 21  1  6  0  0  0
 21175  1  0  0  0  0
 77 22  1  1  0  0  0
 22176  1  0  0  0  0
 23 78  1  0  0  0  0
 23177  1  0  0  0  0
 24 79  2  0  0  0  0
 25 26  1  0  0  0  0
 25 27  1  0  0  0  0
 25 31  1  0  0  0  0
 25 40  1  1  0  0  0
 26 29  1  0  0  0  0
 26 35  1  0  0  0  0
 26 41  1  6  0  0  0
 27 28  1  0  0  0  0
 27 33  1  0  0  0  0
 27 87  1  6  0  0  0
 28 30  1  0  0  0  0
 28 39  1  0  0  0  0
 28 42  1  1  0  0  0
 29 32  1  0  0  0  0
 29 34  1  0  0  0  0
 29 88  1  1  0  0  0
 30 36  1  0  0  0  0
 30 37  1  0  0  0  0
 30 89  1  6  0  0  0
 31 36  1  0  0  0  0
 31 90  1  0  0  0  0
 31 91  1  0  0  0  0
 32 38  1  0  0  0  0
 32 44  1  0  0  0  0
 32 92  1  6  0  0  0
 33 34  1  0  0  0  0
 33 93  1  0  0  0  0
 33 94  1  0  0  0  0
 34 95  1  0  0  0  0
 35 38  1  0  0  0  0
 35 96  1  0  0  0  0
 35 97  1  0  0  0  0
 36 98  1  0  0  0  0
 36 99  1  0  0  0  0
 37 43  1  0  0  0  0
 37 46  1  0  0  0  0
 37 47  1  0  0  0  0
 38100  1  0  0  0  0
 38101  1  0  0  0  0
 39 45  1  0  0  0  0
 39102  1  0  0  0  0
 39103  1  0  0  0  0
 40104  1  0  0  0  0
 40105  1  0  0  0  0
 40106  1  0  0  0  0
 41107  1  0  0  0  0
 41108  1  0  0  0  0
 41109  1  0  0  0  0
 42110  1  0  0  0  0
 42111  1  0  0  0  0
 42112  1  0  0  0  0
 43 45  1  0  0  0  0
 43113  1  0  0  0  0
 44 48  1  0  0  0  0
 44 49  1  0  0  0  0
 45114  1  0  0  0  0
 45115  1  0  0  0  0
 46116  1  0  0  0  0
 46117  1  0  0  0  0
 46121  1  0  0  0  0
 47118  1  0  0  0  0
 47119  1  0  0  0  0
 47120  1  0  0  0  0
 48 50  1  0  0  0  0
 48123  1  0  0  0  0
 48124  1  0  0  0  0
 49125  1  0  0  0  0
 49126  1  0  0  0  0
 49127  1  0  0  0  0
 50 55  1  0  0  0  0
 50128  1  0  0  0  0
 50129  1  0  0  0  0
 51 53  1  0  0  0  0
 51130  1  0  0  0  0
 52 54  1  0  0  0  0
 52131  1  0  0  0  0
 53 56  1  0  0  0  0
 53132  1  0  0  0  0
 54 57  1  0  0  0  0
 54133  1  0  0  0  0
 55 62  2  0  0  0  0
 55134  1  0  0  0  0
 56 60  1  0  0  0  0
 56135  1  0  0  0  0
 57 61  1  0  0  0  0
 57136  1  0  0  0  0
 58 60  1  0  0  0  0
 58 63  1  1  0  0  0
 58137  1  0  0  0  0
 59 61  1  0  0  0  0
 59 64  1  6  0  0  0
 59138  1  0  0  0  0
 60139  1  0  0  0  0
 61140  1  0  0  0  0
 62 66  1  0  0  0  0
 62 67  1  0  0  0  0
 63142  1  0  0  0  0
 63143  1  0  0  0  0
 64144  1  0  0  0  0
 64145  1  0  0  0  0
 65 68  1  0  0  0  0
 65146  1  0  0  0  0
 66152  1  0  0  0  0
 66153  1  0  0  0  0
 66154  1  0  0  0  0
 67149  1  0  0  0  0
 67150  1  0  0  0  0
 67151  1  0  0  0  0
 68 69  1  0  0  0  0
 68157  1  0  0  0  0
 69 71  1  0  0  0  0
 69159  1  0  0  0  0
 70 71  1  0  0  0  0
 70 73  1  1  0  0  0
 70160  1  0  0  0  0
 71161  1  0  0  0  0
 72 74  1  0  0  0  0
 72162  1  0  0  0  0
 73164  1  0  0  0  0
 73165  1  0  0  0  0
 74 75  1  0  0  0  0
 74166  1  0  0  0  0
 75 77  1  0  0  0  0
 75169  1  0  0  0  0
 76 77  1  0  0  0  0
 76 78  1  6  0  0  0
 76170  1  0  0  0  0
 77171  1  0  0  0  0
 78173  1  0  0  0  0
 78174  1  0  0  0  0
 79 80  1  0  0  0  0
 80 81  2  0  0  0  0
 80178  1  0  0  0  0
 81 82  1  0  0  0  0
 81179  1  0  0  0  0
 82 83  1  0  0  0  0
 82180  1  0  0  0  0
 82181  1  0  0  0  0
 83 84  1  0  0  0  0
 83182  1  0  0  0  0
 83183  1  0  0  0  0
 84 85  1  0  0  0  0
 84184  1  0  0  0  0
 84185  1  0  0  0  0
 85 86  1  0  0  0  0
 85186  1  0  0  0  0
 85187  1  0  0  0  0
 86188  1  0  0  0  0
 86189  1  0  0  0  0
 86190  1  0  0  0  0
M  END
> <PUBCHEM_COMPOUND_CID>
101945295

> <PUBCHEM_COMPOUND_CANONICALIZED>
1

> <PUBCHEM_CACTVS_COMPLEXITY>
2270

> <PUBCHEM_CACTVS_HBOND_ACCEPTOR>
24

> <PUBCHEM_CACTVS_HBOND_DONOR>
14

> <PUBCHEM_CACTVS_ROTATABLE_BOND>
23

> <PUBCHEM_CACTVS_SUBSKEYS>
AAADcfB8PgAAAAAAAAAAAAAAAAAAAYAAAAA0aNEiAAAAAGDAAAAAGgAACAAAD1SwgAMCCAAABgCIAiDSCAAAAAAgAAAICAAAAEgRFAIAIQAiUAAFgAAPIYPA4PwPgAAAAAAAAADAAAYAADAAAQAACAAAAA==

> <PUBCHEM_IUPAC_OPENEYE_NAME>
[(2R,3S,4S,5R,6S)-6-[(2R,3R,4S,5S,6R)-2-[[(3S,5R,8R,9R,10R,12R,13R,14R,17S)-17-[(1S)-1,5-dimethyl-1-[(2S,3R,4S,5S,6R)-3,4,5-trihydroxy-6-[[(2R,3R,4S,5S,6R)-3,4,5-trihydroxy-6-(hydroxymethyl)tetrahydropyran-2-yl]oxymethyl]tetrahydropyran-2-yl]oxy-hex-4-enyl]-12-hydroxy-4,4,8,10,14-pentamethyl-2,3,5,6,7,9,11,12,13,15,16,17-dodecahydro-1H-cyclopenta[a]phenanthren-3-yl]oxy]-4,5-dihydroxy-6-(hydroxymethyl)tetrahydropyran-3-yl]oxy-3,4,5-trihydroxy-tetrahydropyran-2-yl]methyl (E)-oct-2-enoate

> <PUBCHEM_IUPAC_CAS_NAME>
(E)-2-octenoic acid [(2R,3S,4S,5R,6S)-6-[[(2R,3R,4S,5S,6R)-4,5-dihydroxy-6-(hydroxymethyl)-2-[[(3S,5R,8R,9R,10R,12R,13R,14R,17S)-12-hydroxy-4,4,8,10,14-pentamethyl-17-[(2S)-6-methyl-2-[[(2S,3R,4S,5S,6R)-3,4,5-trihydroxy-6-[[(2R,3R,4S,5S,6R)-3,4,5-trihydroxy-6-(hydroxymethyl)-2-oxanyl]oxymethyl]-2-oxanyl]oxy]hept-5-en-2-yl]-2,3,5,6,7,9,11,12,13,15,16,17-dodecahydro-1H-cyclopenta[a]phenanthren-3-yl]oxy]-3-oxanyl]oxy]-3,4,5-trihydroxy-2-oxanyl]methyl ester

> <PUBCHEM_IUPAC_NAME>
[(2R,3S,4S,5R,6S)-6-[(2R,3R,4S,5S,6R)-4,5-dihydroxy-6-(hydroxymethyl)-2-[[(3S,5R,8R,9R,10R,12R,13R,14R,17S)-12-hydroxy-4,4,8,10,14-pentamethyl-17-[(2S)-6-methyl-2-[(2S,3R,4S,5S,6R)-3,4,5-trihydroxy-6-[[(2R,3R,4S,5S,6R)-3,4,5-trihydroxy-6-(hydroxymethyl)oxan-2-yl]oxymethyl]oxan-2-yl]oxyhept-5-en-2-yl]-2,3,5,6,7,9,11,12,13,15,16,17-dodecahydro-1H-cyclopenta[a]phenanthren-3-yl]oxy]oxan-3-yl]oxy-3,4,5-trihydroxyoxan-2-yl]methyl (E)-oct-2-enoate

> <PUBCHEM_IUPAC_SYSTEMATIC_NAME>
[(2R,3S,4S,5R,6S)-6-[(2R,3R,4S,5S,6R)-6-(hydroxymethyl)-2-[[(3S,5R,8R,9R,10R,12R,13R,14R,17S)-17-[(2S)-2-[(2S,3R,4S,5S,6R)-6-[[(2R,3R,4S,5S,6R)-6-(hydroxymethyl)-3,4,5-tris(oxidanyl)oxan-2-yl]oxymethyl]-3,4,5-tris(oxidanyl)oxan-2-yl]oxy-6-methyl-hept-5-en-2-yl]-4,4,8,10,14-pentamethyl-12-oxidanyl-2,3,5,6,7,9,11,12,13,15,16,17-dodecahydro-1H-cyclopenta[a]phenanthren-3-yl]oxy]-4,5-bis(oxidanyl)oxan-3-yl]oxy-3,4,5-tris(oxidanyl)oxan-2-yl]methyl (E)-oct-2-enoate

> <PUBCHEM_IUPAC_TRADITIONAL_NAME>
(E)-oct-2-enoic acid [(2R,3S,4S,5R,6S)-6-[(2R,3R,4S,5S,6R)-2-[[(3S,5R,8R,9R,10R,12R,13R,14R,17S)-17-[(1S)-1,5-dimethyl-1-[(2S,3R,4S,5S,6R)-3,4,5-trihydroxy-6-[[(2R,3R,4S,5S,6R)-3,4,5-trihydroxy-6-methylol-tetrahydropyran-2-yl]oxymethyl]tetrahydropyran-2-yl]oxy-hex-4-enyl]-12-hydroxy-4,4,8,10,14-pentamethyl-2,3,5,6,7,9,11,12,13,15,16,17-dodecahydro-1H-cyclopenta[a]phenanthren-3-yl]oxy]-4,5-dihydroxy-6-methylol-tetrahydropyran-3-yl]oxy-3,4,5-trihydroxy-tetrahydropyran-2-yl]methyl ester

> <PUBCHEM_IUPAC_INCHI>
InChI=1S/C62H104O24/c1-10-11-12-13-14-17-40(66)78-28-35-44(69)47(72)51(76)55(82-35)85-53-49(74)43(68)34(27-64)81-57(53)84-39-20-22-59(6)37(58(39,4)5)19-24-60(7)38(59)25-32(65)41-31(18-23-61(41,60)8)62(9,21-15-16-30(2)3)86-56-52(77)48(73)45(70)36(83-56)29-79-54-50(75)46(71)42(67)33(26-63)80-54/h14,16-17,31-39,41-57,63-65,67-77H,10-13,15,18-29H2,1-9H3/b17-14+/t31-,32+,33+,34+,35+,36+,37-,38+,39-,41-,42+,43+,44+,45+,46-,47-,48-,49-,50+,51+,52+,53+,54+,55-,56-,57-,59-,60+,61+,62-/m0/s1

> <PUBCHEM_IUPAC_INCHIKEY>
KRCPFRPUBYFDPP-OKBYIFLJSA-N

> <PUBCHEM_XLOGP3_AA>
3.2

> <PUBCHEM_EXACT_MASS>
1232.692

> <PUBCHEM_MOLECULAR_FORMULA>
C62H104O24

> <PUBCHEM_MOLECULAR_WEIGHT>
1233.49

> <PUBCHEM_OPENEYE_CAN_SMILES>
CCCCCC=CC(=O)OCC1C(C(C(C(O1)OC2C(C(C(OC2OC3CCC4(C(C3(C)C)CCC5(C4CC(C6C5(CCC6C(C)(CCC=C(C)C)OC7C(C(C(C(O7)COC8C(C(C(C(O8)CO)O)O)O)O)O)O)C)O)C)C)CO)O)O)O)O)O

> <PUBCHEM_OPENEYE_ISO_SMILES>
CCCCC/C=C/C(=O)OC[C@@H]1[C@H]([C@@H]([C@H]([C@@H](O1)O[C@@H]2[C@H]([C@@H]([C@H](O[C@H]2O[C@H]3CC[C@]4([C@H](C3(C)C)CC[C@@]5([C@@H]4C[C@H]([C@H]6[C@]5(CC[C@@H]6[C@](C)(CCC=C(C)C)O[C@H]7[C@@H]([C@H]([C@@H]([C@H](O7)CO[C@H]8[C@@H]([C@H]([C@@H]([C@H](O8)CO)O)O)O)O)O)O)C)O)C)C)CO)O)O)O)O)O

> <PUBCHEM_CACTVS_TPSA>
383

> <PUBCHEM_MONOISOTOPIC_WEIGHT>
1232.692

> <PUBCHEM_TOTAL_CHARGE>
0

> <PUBCHEM_HEAVY_ATOM_COUNT>
86

> <PUBCHEM_ATOM_DEF_STEREO_COUNT>
30

> <PUBCHEM_ATOM_UDEF_STEREO_COUNT>
0

> <PUBCHEM_BOND_DEF_STEREO_COUNT>
1

> <PUBCHEM_BOND_UDEF_STEREO_COUNT>
0

> <PUBCHEM_ISOTOPIC_ATOM_COUNT>
0

> <PUBCHEM_COMPONENT_COUNT>
1

> <PUBCHEM_CACTVS_TAUTO_COUNT>
1

> <PUBCHEM_COORDINATE_TYPE>
1
5
255

> <PUBCHEM_BONDANNOTATIONS>
34  1  5
60  10  6
61  11  5
72  12  6
68  15  6
69  16  5
71  18  6
43  2  5
51  2  5
74  20  5
75  21  6
77  22  5
25  40  5
26  41  6
27  87  6
28  42  5
29  88  5
44  3  5
52  3  6
30  89  6
32  92  6
58  63  5
59  64  6
53  6  6
65  6  5
54  7  5
70  73  5
76  78  6
56  8  5
57  9  6

$$$$
