5318539
  -OEChem-12071820562D

 38 39  0     1  0  0  0  0  0999 V2000
    5.2111    2.3268    0.0000 O   0  0  0  0  0  0  0  0  0  0  0  0
    3.9511    1.0667    0.0000 C   0  0  0  0  0  0  0  0  0  0  0  0
    2.9511    1.0667    0.0000 C   0  0  2  0  0  0  0  0  0  0  0  0
    4.2601    2.0178    0.0000 C   0  0  2  0  0  0  0  0  0  0  0  0
    2.6420    2.0178    0.0000 C   0  0  0  0  0  0  0  0  0  0  0  0
    3.4511    2.6056    0.0000 C   0  0  0  0  0  0  0  0  0  0  0  0
    4.9021    0.7577    0.0000 C   0  0  0  0  0  0  0  0  0  0  0  0
    4.4511    0.2008    0.0000 C   0  0  0  0  0  0  0  0  0  0  0  0
    2.0000    0.7577    0.0000 C   0  0  0  0  0  0  0  0  0  0  0  0
    2.9511    0.0667    0.0000 C   0  0  0  0  0  0  0  0  0  0  0  0
    2.0850   -0.4333    0.0000 C   0  0  0  0  0  0  0  0  0  0  0  0
    3.8171   -0.4333    0.0000 C   0  0  0  0  0  0  0  0  0  0  0  0
    2.0850   -1.4333    0.0000 C   0  0  0  0  0  0  0  0  0  0  0  0
    3.8171   -1.4333    0.0000 C   0  0  0  0  0  0  0  0  0  0  0  0
    2.9511   -1.9333    0.0000 C   0  0  0  0  0  0  0  0  0  0  0  0
    2.9511   -2.9333    0.0000 C   0  0  0  0  0  0  0  0  0  0  0  0
    4.6985    1.5794    0.0000 H   0  0  0  0  0  0  0  0  0  0  0  0
    2.3320    2.5547    0.0000 H   0  0  0  0  0  0  0  0  0  0  0  0
    2.0756    1.7656    0.0000 H   0  0  0  0  0  0  0  0  0  0  0  0
    3.8659    3.0663    0.0000 H   0  0  0  0  0  0  0  0  0  0  0  0
    3.0362    3.0663    0.0000 H   0  0  0  0  0  0  0  0  0  0  0  0
    4.7105    0.1681    0.0000 H   0  0  0  0  0  0  0  0  0  0  0  0
    5.4918    0.5661    0.0000 H   0  0  0  0  0  0  0  0  0  0  0  0
    5.0937    1.3474    0.0000 H   0  0  0  0  0  0  0  0  0  0  0  0
    3.9142   -0.1093    0.0000 H   0  0  0  0  0  0  0  0  0  0  0  0
    4.7612   -0.3361    0.0000 H   0  0  0  0  0  0  0  0  0  0  0  0
    4.9880    0.5108    0.0000 H   0  0  0  0  0  0  0  0  0  0  0  0
    1.8084    1.3474    0.0000 H   0  0  0  0  0  0  0  0  0  0  0  0
    1.4103    0.5661    0.0000 H   0  0  0  0  0  0  0  0  0  0  0  0
    2.1916    0.1681    0.0000 H   0  0  0  0  0  0  0  0  0  0  0  0
    5.3400    2.9333    0.0000 H   0  0  0  0  0  0  0  0  0  0  0  0
    1.5481   -0.1233    0.0000 H   0  0  0  0  0  0  0  0  0  0  0  0
    4.3540   -0.1233    0.0000 H   0  0  0  0  0  0  0  0  0  0  0  0
    1.5481   -1.7433    0.0000 H   0  0  0  0  0  0  0  0  0  0  0  0
    4.3540   -1.7433    0.0000 H   0  0  0  0  0  0  0  0  0  0  0  0
    2.3311   -2.9333    0.0000 H   0  0  0  0  0  0  0  0  0  0  0  0
    2.9511   -3.5533    0.0000 H   0  0  0  0  0  0  0  0  0  0  0  0
    3.5711   -2.9333    0.0000 H   0  0  0  0  0  0  0  0  0  0  0  0
  4  1  1  6  0  0  0
  1 31  1  0  0  0  0
  2  3  1  0  0  0  0
  2  4  1  0  0  0  0
  2  7  1  0  0  0  0
  2  8  1  0  0  0  0
  3  5  1  0  0  0  0
  3  9  1  1  0  0  0
  3 10  1  0  0  0  0
  4  6  1  0  0  0  0
  4 17  1  0  0  0  0
  5  6  1  0  0  0  0
  5 18  1  0  0  0  0
  5 19  1  0  0  0  0
  6 20  1  0  0  0  0
  6 21  1  0  0  0  0
  7 22  1  0  0  0  0
  7 23  1  0  0  0  0
  7 24  1  0  0  0  0
  8 25  1  0  0  0  0
  8 26  1  0  0  0  0
  8 27  1  0  0  0  0
  9 28  1  0  0  0  0
  9 29  1  0  0  0  0
  9 30  1  0  0  0  0
 10 11  2  0  0  0  0
 10 12  1  0  0  0  0
 11 13  1  0  0  0  0
 11 32  1  0  0  0  0
 12 14  2  0  0  0  0
 12 33  1  0  0  0  0
 13 15  2  0  0  0  0
 13 34  1  0  0  0  0
 14 15  1  0  0  0  0
 14 35  1  0  0  0  0
 15 16  1  0  0  0  0
 16 36  1  0  0  0  0
 16 37  1  0  0  0  0
 16 38  1  0  0  0  0
M  END
> <PUBCHEM_COMPOUND_CID>
5318539

> <PUBCHEM_COMPOUND_CANONICALIZED>
1

> <PUBCHEM_CACTVS_COMPLEXITY>
250

> <PUBCHEM_CACTVS_HBOND_ACCEPTOR>
1

> <PUBCHEM_CACTVS_HBOND_DONOR>
1

> <PUBCHEM_CACTVS_ROTATABLE_BOND>
1

> <PUBCHEM_CACTVS_SUBSKEYS>
AAADceBwIAAAAAAAAAAAAAAAAAAAAYAAAAAwAAAAAAAAAAABAAAAGgAACAAADhSgmAIyAIAAAgCAAiBCAAACAAAgAAAIiAAAAIgIMCKAERCAYAAkgAAIiAeAwPAPwAAAAAAAAACAAAAAAAAAAIAADAAAAA==

> <PUBCHEM_IUPAC_OPENEYE_NAME>
(1S,3S)-2,2,3-trimethyl-3-(p-tolyl)cyclopentanol

> <PUBCHEM_IUPAC_CAS_NAME>
(1S,3S)-2,2,3-trimethyl-3-(4-methylphenyl)-1-cyclopentanol

> <PUBCHEM_IUPAC_NAME>
(1S,3S)-2,2,3-trimethyl-3-(4-methylphenyl)cyclopentan-1-ol

> <PUBCHEM_IUPAC_SYSTEMATIC_NAME>
(1S,3S)-2,2,3-trimethyl-3-(4-methylphenyl)cyclopentan-1-ol

> <PUBCHEM_IUPAC_TRADITIONAL_NAME>
(1S,3S)-2,2,3-trimethyl-3-(p-tolyl)cyclopentanol

> <PUBCHEM_IUPAC_INCHI>
InChI=1S/C15H22O/c1-11-5-7-12(8-6-11)15(4)10-9-13(16)14(15,2)3/h5-8,13,16H,9-10H2,1-4H3/t13-,15-/m0/s1

> <PUBCHEM_IUPAC_INCHIKEY>
AFRLMSOCDMQZOR-ZFWWWQNUSA-N

> <PUBCHEM_XLOGP3_AA>
3.9

> <PUBCHEM_EXACT_MASS>
218.167

> <PUBCHEM_MOLECULAR_FORMULA>
C15H22O

> <PUBCHEM_MOLECULAR_WEIGHT>
218.34

> <PUBCHEM_OPENEYE_CAN_SMILES>
CC1=CC=C(C=C1)C2(CCC(C2(C)C)O)C

> <PUBCHEM_OPENEYE_ISO_SMILES>
CC1=CC=C(C=C1)[C@@]2(CC[C@@H](C2(C)C)O)C

> <PUBCHEM_CACTVS_TPSA>
20.2

> <PUBCHEM_MONOISOTOPIC_WEIGHT>
218.167

> <PUBCHEM_TOTAL_CHARGE>
0

> <PUBCHEM_HEAVY_ATOM_COUNT>
16

> <PUBCHEM_ATOM_DEF_STEREO_COUNT>
2

> <PUBCHEM_ATOM_UDEF_STEREO_COUNT>
0

> <PUBCHEM_BOND_DEF_STEREO_COUNT>
0

> <PUBCHEM_BOND_UDEF_STEREO_COUNT>
0

> <PUBCHEM_ISOTOPIC_ATOM_COUNT>
0

> <PUBCHEM_COMPONENT_COUNT>
1

> <PUBCHEM_CACTVS_TAUTO_COUNT>
1

> <PUBCHEM_COORDINATE_TYPE>
1
5
255

> <PUBCHEM_BONDANNOTATIONS>
4  1  6
10  11  8
10  12  8
11  13  8
12  14  8
13  15  8
14  15  8
3  9  5

$$$$
