20841552
  -OEChem-12071809282D

170177  0     1  0  0  0  0  0999 V2000
    8.7358    2.6895    0.0000 O   0  0  0  0  0  0  0  0  0  0  0  0
   10.4385   -3.5007    0.0000 O   0  0  0  0  0  0  0  0  0  0  0  0
    9.3318    5.1523    0.0000 O   0  0  0  0  0  0  0  0  0  0  0  0
    8.7065   -3.5007    0.0000 O   0  0  0  0  0  0  0  0  0  0  0  0
    8.1701    6.4370    0.0000 O   0  0  0  0  0  0  0  0  0  0  0  0
   10.4385   -5.5007    0.0000 O   0  0  0  0  0  0  0  0  0  0  0  0
   10.8153    6.4937    0.0000 O   0  0  0  0  0  0  0  0  0  0  0  0
    8.7065   -6.5007    0.0000 O   0  0  0  0  0  0  0  0  0  0  0  0
   10.3953    8.4491    0.0000 O   0  0  0  0  0  0  0  0  0  0  0  0
    6.9744   -5.5007    0.0000 O   0  0  0  0  0  0  0  0  0  0  0  0
    8.4919    9.0631    0.0000 O   0  0  0  0  0  0  0  0  0  0  0  0
   14.3299    5.4594    0.0000 O   0  0  0  0  0  0  0  0  0  0  0  0
    6.2667    7.0509    0.0000 O   0  0  0  0  0  0  0  0  0  0  0  0
    9.5725   -7.0007    0.0000 O   0  0  0  0  0  0  0  0  0  0  0  0
    6.1084   -4.0007    0.0000 O   0  0  0  0  0  0  0  0  0  0  0  0
   12.1706   -6.5007    0.0000 O   0  0  0  0  0  0  0  0  0  0  0  0
   12.1706   -8.5007    0.0000 O   0  0  0  0  0  0  0  0  0  0  0  0
    4.5733    6.6872    0.0000 O   0  0  0  0  0  0  0  0  0  0  0  0
   10.4385   -9.5007    0.0000 O   0  0  0  0  0  0  0  0  0  0  0  0
    7.8404   -8.0007    0.0000 O   0  0  0  0  0  0  0  0  0  0  0  0
    5.8467    9.0064    0.0000 O   0  0  0  0  0  0  0  0  0  0  0  0
    3.9433    9.6203    0.0000 O   0  0  0  0  0  0  0  0  0  0  0  0
    2.4599    8.2789    0.0000 O   0  0  0  0  0  0  0  0  0  0  0  0
    3.0898    5.3458    0.0000 O   0  0  0  0  0  0  0  0  0  0  0  0
   11.3396    1.1995    0.0000 C   0  0  1  0  0  0  0  0  0  0  0  0
   11.3357    2.1995    0.0000 C   0  0  1  0  0  0  0  0  0  0  0  0
   10.4755    0.6962    0.0000 C   0  0  1  0  0  0  0  0  0  0  0  0
   10.4635   -0.3454    0.0000 C   0  0  2  0  0  0  0  0  0  0  0  0
   10.4678    2.6962    0.0000 C   0  0  1  0  0  0  0  0  0  0  0  0
   11.3635   -0.8696    0.0000 C   0  0  1  0  0  0  0  0  0  0  0  0
   12.2515    0.6962    0.0000 C   0  0  0  0  0  0  0  0  0  0  0  0
    9.6076    1.1929    0.0000 C   0  0  0  0  0  0  0  0  0  0  0  0
   10.6732    3.6688    0.0000 C   0  0  2  0  0  0  0  0  0  0  0  0
    9.6037    2.1929    0.0000 C   0  0  3  0  0  0  0  0  0  0  0  0
   12.0702    2.8694    0.0000 C   0  0  0  0  0  0  0  0  0  0  0  0
   12.2636   -0.3454    0.0000 C   0  0  0  0  0  0  0  0  0  0  0  0
   11.3761   -1.9546    0.0000 C   0  0  0  0  0  0  0  0  0  0  0  0
   11.6616    3.7757    0.0000 C   0  0  0  0  0  0  0  0  0  0  0  0
    9.5135   -0.8696    0.0000 C   0  0  0  0  0  0  0  0  0  0  0  0
   12.3237    1.3770    0.0000 C   0  0  0  0  0  0  0  0  0  0  0  0
   12.3212    2.0297    0.0000 C   0  0  0  0  0  0  0  0  0  0  0  0
    9.5994    0.1580    0.0000 C   0  0  0  0  0  0  0  0  0  0  0  0
   10.4385   -2.5007    0.0000 C   0  0  3  0  0  0  0  0  0  0  0  0
   10.0025    4.4105    0.0000 C   0  0  2  0  0  0  0  0  0  0  0  0
    9.5010   -1.9546    0.0000 C   0  0  0  0  0  0  0  0  0  0  0  0
   12.3760   -1.9469    0.0000 C   0  0  0  0  0  0  0  0  0  0  0  0
   11.8827   -2.8167    0.0000 C   0  0  0  0  0  0  0  0  0  0  0  0
   10.7443    5.0812    0.0000 C   0  0  0  0  0  0  0  0  0  0  0  0
    9.2608    3.7398    0.0000 C   0  0  0  0  0  0  0  0  0  0  0  0
    9.5725   -4.0007    0.0000 C   0  0  2  0  0  0  0  0  0  0  0  0
    9.1218    6.1300    0.0000 C   0  0  2  0  0  0  0  0  0  0  0  0
   11.7348    4.9442    0.0000 C   0  0  0  0  0  0  0  0  0  0  0  0
    9.5725   -5.0007    0.0000 C   0  0  1  0  0  0  0  0  0  0  0  0
    9.8636    6.8007    0.0000 C   0  0  1  0  0  0  0  0  0  0  0  0
   12.3488    5.7335    0.0000 C   0  0  0  0  0  0  0  0  0  0  0  0
    8.7065   -5.5007    0.0000 C   0  0  2  0  0  0  0  0  0  0  0  0
    9.6536    7.7784    0.0000 C   0  0  2  0  0  0  0  0  0  0  0  0
    7.8404   -4.0007    0.0000 C   0  0  1  0  0  0  0  0  0  0  0  0
    7.9601    7.4146    0.0000 C   0  0  1  0  0  0  0  0  0  0  0  0
    7.8404   -5.0007    0.0000 C   0  0  1  0  0  0  0  0  0  0  0  0
    8.7019    8.0854    0.0000 C   0  0  1  0  0  0  0  0  0  0  0  0
   13.3394    5.5964    0.0000 C   0  0  0  0  0  0  0  0  0  0  0  0
    6.9744   -3.5007    0.0000 C   0  0  0  0  0  0  0  0  0  0  0  0
    7.0084    7.7216    0.0000 C   0  0  0  0  0  0  0  0  0  0  0  0
   10.4385   -6.5007    0.0000 C   0  0  2  0  0  0  0  0  0  0  0  0
   13.4764    6.5870    0.0000 C   0  0  0  0  0  0  0  0  0  0  0  0
   13.2023    4.6058    0.0000 C   0  0  0  0  0  0  0  0  0  0  0  0
   11.3046   -7.0007    0.0000 C   0  0  1  0  0  0  0  0  0  0  0  0
   11.3046   -8.0007    0.0000 C   0  0  2  0  0  0  0  0  0  0  0  0
    9.5725   -8.0007    0.0000 C   0  0  1  0  0  0  0  0  0  0  0  0
   10.4385   -8.5007    0.0000 C   0  0  1  0  0  0  0  0  0  0  0  0
    5.3150    7.3579    0.0000 C   0  0  2  0  0  0  0  0  0  0  0  0
    8.7065   -8.5007    0.0000 C   0  0  0  0  0  0  0  0  0  0  0  0
    5.1050    8.3356    0.0000 C   0  0  1  0  0  0  0  0  0  0  0  0
    4.1533    8.6426    0.0000 C   0  0  2  0  0  0  0  0  0  0  0  0
    3.6216    6.9942    0.0000 C   0  0  1  0  0  0  0  0  0  0  0  0
    3.4116    7.9719    0.0000 C   0  0  1  0  0  0  0  0  0  0  0  0
    2.8798    6.3235    0.0000 C   0  0  0  0  0  0  0  0  0  0  0  0
   11.2100    0.2684    0.0000 H   0  0  0  0  0  0  0  0  0  0  0  0
    9.7788    3.1940    0.0000 H   0  0  0  0  0  0  0  0  0  0  0  0
   12.1029   -1.2890    0.0000 H   0  0  0  0  0  0  0  0  0  0  0  0
   12.8636    0.5972    0.0000 H   0  0  0  0  0  0  0  0  0  0  0  0
   12.4538    1.2823    0.0000 H   0  0  0  0  0  0  0  0  0  0  0  0
    8.9966    1.2982    0.0000 H   0  0  0  0  0  0  0  0  0  0  0  0
    9.3978    0.6094    0.0000 H   0  0  0  0  0  0  0  0  0  0  0  0
   10.9758    4.4631    0.0000 H   0  0  0  0  0  0  0  0  0  0  0  0
    9.0680    1.8808    0.0000 H   0  0  0  0  0  0  0  0  0  0  0  0
   12.4375    2.3700    0.0000 H   0  0  0  0  0  0  0  0  0  0  0  0
   12.6055    3.1823    0.0000 H   0  0  0  0  0  0  0  0  0  0  0  0
   12.4794   -0.9266    0.0000 H   0  0  0  0  0  0  0  0  0  0  0  0
   12.8732   -0.2322    0.0000 H   0  0  0  0  0  0  0  0  0  0  0  0
   12.2504    3.9697    0.0000 H   0  0  0  0  0  0  0  0  0  0  0  0
   11.5305    4.3817    0.0000 H   0  0  0  0  0  0  0  0  0  0  0  0
    9.3112   -0.2836    0.0000 H   0  0  0  0  0  0  0  0  0  0  0  0
    8.9015   -0.9687    0.0000 H   0  0  0  0  0  0  0  0  0  0  0  0
   12.4337    0.7668    0.0000 H   0  0  0  0  0  0  0  0  0  0  0  0
   12.9339    1.4870    0.0000 H   0  0  0  0  0  0  0  0  0  0  0  0
   12.2137    1.9871    0.0000 H   0  0  0  0  0  0  0  0  0  0  0  0
   12.2159    1.4187    0.0000 H   0  0  0  0  0  0  0  0  0  0  0  0
   12.9322    1.9244    0.0000 H   0  0  0  0  0  0  0  0  0  0  0  0
   12.4265    2.6407    0.0000 H   0  0  0  0  0  0  0  0  0  0  0  0
    9.9114    0.6937    0.0000 H   0  0  0  0  0  0  0  0  0  0  0  0
    9.0636    0.4700    0.0000 H   0  0  0  0  0  0  0  0  0  0  0  0
    9.2873   -0.3778    0.0000 H   0  0  0  0  0  0  0  0  0  0  0  0
    9.9010   -2.8096    0.0000 H   0  0  0  0  0  0  0  0  0  0  0  0
    8.8914   -1.8414    0.0000 H   0  0  0  0  0  0  0  0  0  0  0  0
    9.2852   -2.5358    0.0000 H   0  0  0  0  0  0  0  0  0  0  0  0
   12.3808   -2.5668    0.0000 H   0  0  0  0  0  0  0  0  0  0  0  0
   12.9960   -1.9421    0.0000 H   0  0  0  0  0  0  0  0  0  0  0  0
   12.3713   -1.3269    0.0000 H   0  0  0  0  0  0  0  0  0  0  0  0
   11.3482   -3.1308    0.0000 H   0  0  0  0  0  0  0  0  0  0  0  0
   12.1969   -3.3512    0.0000 H   0  0  0  0  0  0  0  0  0  0  0  0
   12.4173   -2.5026    0.0000 H   0  0  0  0  0  0  0  0  0  0  0  0
    8.2000    2.3774    0.0000 H   0  0  0  0  0  0  0  0  0  0  0  0
   10.9686    5.6592    0.0000 H   0  0  0  0  0  0  0  0  0  0  0  0
   10.2336    5.4328    0.0000 H   0  0  0  0  0  0  0  0  0  0  0  0
    8.8450    4.1997    0.0000 H   0  0  0  0  0  0  0  0  0  0  0  0
    8.8010    3.3240    0.0000 H   0  0  0  0  0  0  0  0  0  0  0  0
    9.6767    3.2800    0.0000 H   0  0  0  0  0  0  0  0  0  0  0  0
   10.1094   -4.3107    0.0000 H   0  0  0  0  0  0  0  0  0  0  0  0
    8.6620    5.7141    0.0000 H   0  0  0  0  0  0  0  0  0  0  0  0
   11.9683    4.3698    0.0000 H   0  0  0  0  0  0  0  0  0  0  0  0
    9.5725   -5.6207    0.0000 H   0  0  0  0  0  0  0  0  0  0  0  0
   10.3234    7.2165    0.0000 H   0  0  0  0  0  0  0  0  0  0  0  0
   12.1153    6.3078    0.0000 H   0  0  0  0  0  0  0  0  0  0  0  0
    8.1695   -5.8107    0.0000 H   0  0  0  0  0  0  0  0  0  0  0  0
    9.5234    8.3845    0.0000 H   0  0  0  0  0  0  0  0  0  0  0  0
    7.8404   -3.3807    0.0000 H   0  0  0  0  0  0  0  0  0  0  0  0
    7.5003    6.9988    0.0000 H   0  0  0  0  0  0  0  0  0  0  0  0
    7.3035   -4.6907    0.0000 H   0  0  0  0  0  0  0  0  0  0  0  0
    8.1118    8.2757    0.0000 H   0  0  0  0  0  0  0  0  0  0  0  0
   11.2751    6.9095    0.0000 H   0  0  0  0  0  0  0  0  0  0  0  0
    7.3730   -3.0257    0.0000 H   0  0  0  0  0  0  0  0  0  0  0  0
    6.5759   -3.0257    0.0000 H   0  0  0  0  0  0  0  0  0  0  0  0
    7.2983    8.2697    0.0000 H   0  0  0  0  0  0  0  0  0  0  0  0
    6.5191    8.1023    0.0000 H   0  0  0  0  0  0  0  0  0  0  0  0
    9.9016   -6.1907    0.0000 H   0  0  0  0  0  0  0  0  0  0  0  0
    8.1695   -6.8107    0.0000 H   0  0  0  0  0  0  0  0  0  0  0  0
   10.2651    9.0552    0.0000 H   0  0  0  0  0  0  0  0  0  0  0  0
   14.0906    6.5020    0.0000 H   0  0  0  0  0  0  0  0  0  0  0  0
   13.5614    7.2011    0.0000 H   0  0  0  0  0  0  0  0  0  0  0  0
   12.8623    6.6720    0.0000 H   0  0  0  0  0  0  0  0  0  0  0  0
   12.5882    4.6908    0.0000 H   0  0  0  0  0  0  0  0  0  0  0  0
   13.1173    3.9917    0.0000 H   0  0  0  0  0  0  0  0  0  0  0  0
   13.8164    4.5209    0.0000 H   0  0  0  0  0  0  0  0  0  0  0  0
    6.9744   -6.1207    0.0000 H   0  0  0  0  0  0  0  0  0  0  0  0
    7.9018    9.2534    0.0000 H   0  0  0  0  0  0  0  0  0  0  0  0
   14.7106    5.9487    0.0000 H   0  0  0  0  0  0  0  0  0  0  0  0
   11.8415   -7.3107    0.0000 H   0  0  0  0  0  0  0  0  0  0  0  0
    5.5715   -3.6907    0.0000 H   0  0  0  0  0  0  0  0  0  0  0  0
   11.3046   -8.6207    0.0000 H   0  0  0  0  0  0  0  0  0  0  0  0
    9.0356   -7.6907    0.0000 H   0  0  0  0  0  0  0  0  0  0  0  0
    9.9016   -8.8107    0.0000 H   0  0  0  0  0  0  0  0  0  0  0  0
    5.4452    6.7518    0.0000 H   0  0  0  0  0  0  0  0  0  0  0  0
   12.1706   -5.8807    0.0000 H   0  0  0  0  0  0  0  0  0  0  0  0
    8.3080   -8.9756    0.0000 H   0  0  0  0  0  0  0  0  0  0  0  0
    9.1050   -8.9756    0.0000 H   0  0  0  0  0  0  0  0  0  0  0  0
    4.9748    8.9418    0.0000 H   0  0  0  0  0  0  0  0  0  0  0  0
   12.1706   -9.1207    0.0000 H   0  0  0  0  0  0  0  0  0  0  0  0
    9.9016   -9.8107    0.0000 H   0  0  0  0  0  0  0  0  0  0  0  0
    3.5632    8.8330    0.0000 H   0  0  0  0  0  0  0  0  0  0  0  0
    3.7518    6.3880    0.0000 H   0  0  0  0  0  0  0  0  0  0  0  0
    3.8607    8.5781    0.0000 H   0  0  0  0  0  0  0  0  0  0  0  0
    7.3035   -8.3107    0.0000 H   0  0  0  0  0  0  0  0  0  0  0  0
    5.7165    9.6125    0.0000 H   0  0  0  0  0  0  0  0  0  0  0  0
    2.5502    6.8486    0.0000 H   0  0  0  0  0  0  0  0  0  0  0  0
    2.3055    6.0900    0.0000 H   0  0  0  0  0  0  0  0  0  0  0  0
    3.3532    9.8107    0.0000 H   0  0  0  0  0  0  0  0  0  0  0  0
    2.0000    7.8631    0.0000 H   0  0  0  0  0  0  0  0  0  0  0  0
    2.6300    4.9300    0.0000 H   0  0  0  0  0  0  0  0  0  0  0  0
  1 34  1  0  0  0  0
  1114  1  0  0  0  0
  2 43  1  0  0  0  0
 50  2  1  1  0  0  0
 44  3  1  1  0  0  0
 51  3  1  6  0  0  0
  4 50  1  0  0  0  0
  4 58  1  0  0  0  0
  5 51  1  0  0  0  0
  5 59  1  0  0  0  0
 53  6  1  6  0  0  0
 65  6  1  1  0  0  0
 54  7  1  1  0  0  0
  7132  1  0  0  0  0
 56  8  1  1  0  0  0
  8138  1  0  0  0  0
 57  9  1  6  0  0  0
  9139  1  0  0  0  0
 60 10  1  6  0  0  0
 10146  1  0  0  0  0
 61 11  1  1  0  0  0
 11147  1  0  0  0  0
 12 62  1  0  0  0  0
 12148  1  0  0  0  0
 13 64  1  0  0  0  0
 72 13  1  6  0  0  0
 14 65  1  0  0  0  0
 14 70  1  0  0  0  0
 15 63  1  0  0  0  0
 15150  1  0  0  0  0
 68 16  1  6  0  0  0
 16155  1  0  0  0  0
 69 17  1  1  0  0  0
 17159  1  0  0  0  0
 18 72  1  0  0  0  0
 18 76  1  0  0  0  0
 71 19  1  6  0  0  0
 19160  1  0  0  0  0
 20 73  1  0  0  0  0
 20164  1  0  0  0  0
 74 21  1  1  0  0  0
 21165  1  0  0  0  0
 75 22  1  6  0  0  0
 22168  1  0  0  0  0
 77 23  1  1  0  0  0
 23169  1  0  0  0  0
 24 78  1  0  0  0  0
 24170  1  0  0  0  0
 25 26  1  0  0  0  0
 25 27  1  0  0  0  0
 25 31  1  0  0  0  0
 25 40  1  1  0  0  0
 26 29  1  0  0  0  0
 26 35  1  0  0  0  0
 26 41  1  6  0  0  0
 27 28  1  0  0  0  0
 27 32  1  0  0  0  0
 27 79  1  6  0  0  0
 28 30  1  0  0  0  0
 28 39  1  0  0  0  0
 28 42  1  1  0  0  0
 29 33  1  0  0  0  0
 29 34  1  0  0  0  0
 29 80  1  1  0  0  0
 30 36  1  0  0  0  0
 30 37  1  0  0  0  0
 30 81  1  6  0  0  0
 31 36  1  0  0  0  0
 31 82  1  0  0  0  0
 31 83  1  0  0  0  0
 32 34  1  0  0  0  0
 32 84  1  0  0  0  0
 32 85  1  0  0  0  0
 33 38  1  0  0  0  0
 33 44  1  0  0  0  0
 33 86  1  6  0  0  0
 34 87  1  0  0  0  0
 35 38  1  0  0  0  0
 35 88  1  0  0  0  0
 35 89  1  0  0  0  0
 36 90  1  0  0  0  0
 36 91  1  0  0  0  0
 37 43  1  0  0  0  0
 37 46  1  0  0  0  0
 37 47  1  0  0  0  0
 38 92  1  0  0  0  0
 38 93  1  0  0  0  0
 39 45  1  0  0  0  0
 39 94  1  0  0  0  0
 39 95  1  0  0  0  0
 40 96  1  0  0  0  0
 40 97  1  0  0  0  0
 40 98  1  0  0  0  0
 41 99  1  0  0  0  0
 41100  1  0  0  0  0
 41101  1  0  0  0  0
 42102  1  0  0  0  0
 42103  1  0  0  0  0
 42104  1  0  0  0  0
 43 45  1  0  0  0  0
 43105  1  0  0  0  0
 44 48  1  0  0  0  0
 44 49  1  0  0  0  0
 45106  1  0  0  0  0
 45107  1  0  0  0  0
 46108  1  0  0  0  0
 46109  1  0  0  0  0
 46110  1  0  0  0  0
 47111  1  0  0  0  0
 47112  1  0  0  0  0
 47113  1  0  0  0  0
 48 52  1  0  0  0  0
 48115  1  0  0  0  0
 48116  1  0  0  0  0
 49117  1  0  0  0  0
 49118  1  0  0  0  0
 49119  1  0  0  0  0
 50 53  1  0  0  0  0
 50120  1  0  0  0  0
 51 54  1  0  0  0  0
 51121  1  0  0  0  0
 52 55  2  0  0  0  0
 52122  1  0  0  0  0
 53 56  1  0  0  0  0
 53123  1  0  0  0  0
 54 57  1  0  0  0  0
 54124  1  0  0  0  0
 55 62  1  0  0  0  0
 55125  1  0  0  0  0
 56 60  1  0  0  0  0
 56126  1  0  0  0  0
 57 61  1  0  0  0  0
 57127  1  0  0  0  0
 58 60  1  0  0  0  0
 58 63  1  1  0  0  0
 58128  1  0  0  0  0
 59 61  1  0  0  0  0
 59 64  1  6  0  0  0
 59129  1  0  0  0  0
 60130  1  0  0  0  0
 61131  1  0  0  0  0
 62 66  1  0  0  0  0
 62 67  1  0  0  0  0
 63133  1  0  0  0  0
 63134  1  0  0  0  0
 64135  1  0  0  0  0
 64136  1  0  0  0  0
 65 68  1  0  0  0  0
 65137  1  0  0  0  0
 66140  1  0  0  0  0
 66141  1  0  0  0  0
 66142  1  0  0  0  0
 67143  1  0  0  0  0
 67144  1  0  0  0  0
 67145  1  0  0  0  0
 68 69  1  0  0  0  0
 68149  1  0  0  0  0
 69 71  1  0  0  0  0
 69151  1  0  0  0  0
 70 71  1  0  0  0  0
 70 73  1  1  0  0  0
 70152  1  0  0  0  0
 71153  1  0  0  0  0
 72 74  1  0  0  0  0
 72154  1  0  0  0  0
 73156  1  0  0  0  0
 73157  1  0  0  0  0
 74 75  1  0  0  0  0
 74158  1  0  0  0  0
 75 77  1  0  0  0  0
 75161  1  0  0  0  0
 76 77  1  0  0  0  0
 76 78  1  6  0  0  0
 76162  1  0  0  0  0
 77163  1  0  0  0  0
 78166  1  0  0  0  0
 78167  1  0  0  0  0
M  END
> <PUBCHEM_COMPOUND_CID>
20841552

> <PUBCHEM_COMPOUND_CANONICALIZED>
1

> <PUBCHEM_CACTVS_COMPLEXITY>
2040

> <PUBCHEM_CACTVS_HBOND_ACCEPTOR>
24

> <PUBCHEM_CACTVS_HBOND_DONOR>
16

> <PUBCHEM_CACTVS_ROTATABLE_BOND>
16

> <PUBCHEM_CACTVS_SUBSKEYS>
AAADcfB8PgAAAAAAAAAAAAAAAAAAAYAAAAA0aNEiAAAAAGDAAAAAGgAACAAAD1SwgAMCCAAABgCAACBCAAAAAAAgAAAICAAAAAgRFAIAAQAiUAAFwAAPEAPA4PwPgAAAAAAAAADAAAYAADAAAQAACAAAAA==

> <PUBCHEM_IUPAC_OPENEYE_NAME>
(2R,3R,4S,5S,6R)-2-[[(2R,3S,4S,5R,6S)-6-[(E,1S)-1-[(5R,8R,9R,10R,13R,14R,17S)-3-[(2R,3R,4S,5S,6R)-4,5-dihydroxy-6-(hydroxymethyl)-3-[(2S,3R,4S,5S,6R)-3,4,5-trihydroxy-6-(hydroxymethyl)tetrahydropyran-2-yl]oxy-tetrahydropyran-2-yl]oxy-12-hydroxy-4,4,8,10,14-pentamethyl-2,3,5,6,7,9,11,12,13,15,16,17-dodecahydro-1H-cyclopenta[a]phenanthren-17-yl]-5-hydroxy-1,5-dimethyl-hex-3-enoxy]-3,4,5-trihydroxy-tetrahydropyran-2-yl]methoxy]-6-(hydroxymethyl)tetrahydropyran-3,4,5-triol

> <PUBCHEM_IUPAC_CAS_NAME>
(2R,3R,4S,5S,6R)-2-[[(2R,3S,4S,5R,6S)-6-[(E,2S)-2-[(5R,8R,9R,10R,13R,14R,17S)-3-[[(2R,3R,4S,5S,6R)-4,5-dihydroxy-6-(hydroxymethyl)-3-[[(2S,3R,4S,5S,6R)-3,4,5-trihydroxy-6-(hydroxymethyl)-2-oxanyl]oxy]-2-oxanyl]oxy]-12-hydroxy-4,4,8,10,14-pentamethyl-2,3,5,6,7,9,11,12,13,15,16,17-dodecahydro-1H-cyclopenta[a]phenanthren-17-yl]-6-hydroxy-6-methylhept-4-en-2-yl]oxy-3,4,5-trihydroxy-2-oxanyl]methoxy]-6-(hydroxymethyl)oxane-3,4,5-triol

> <PUBCHEM_IUPAC_NAME>
(2R,3R,4S,5S,6R)-2-[[(2R,3S,4S,5R,6S)-6-[(E,2S)-2-[(5R,8R,9R,10R,13R,14R,17S)-3-[(2R,3R,4S,5S,6R)-4,5-dihydroxy-6-(hydroxymethyl)-3-[(2S,3R,4S,5S,6R)-3,4,5-trihydroxy-6-(hydroxymethyl)oxan-2-yl]oxyoxan-2-yl]oxy-12-hydroxy-4,4,8,10,14-pentamethyl-2,3,5,6,7,9,11,12,13,15,16,17-dodecahydro-1H-cyclopenta[a]phenanthren-17-yl]-6-hydroxy-6-methylhept-4-en-2-yl]oxy-3,4,5-trihydroxyoxan-2-yl]methoxy]-6-(hydroxymethyl)oxane-3,4,5-triol

> <PUBCHEM_IUPAC_SYSTEMATIC_NAME>
(2R,3S,4S,5R,6R)-2-(hydroxymethyl)-6-[[(2R,3S,4S,5R,6S)-6-[(E,2S)-2-[(5R,8R,9R,10R,13R,14R,17S)-3-[(2R,3R,4S,5S,6R)-6-(hydroxymethyl)-3-[(2S,3R,4S,5S,6R)-6-(hydroxymethyl)-3,4,5-tris(oxidanyl)oxan-2-yl]oxy-4,5-bis(oxidanyl)oxan-2-yl]oxy-4,4,8,10,14-pentamethyl-12-oxidanyl-2,3,5,6,7,9,11,12,13,15,16,17-dodecahydro-1H-cyclopenta[a]phenanthren-17-yl]-6-methyl-6-oxidanyl-hept-4-en-2-yl]oxy-3,4,5-tris(oxidanyl)oxan-2-yl]methoxy]oxane-3,4,5-triol

> <PUBCHEM_IUPAC_TRADITIONAL_NAME>
(2R,3R,4S,5S,6R)-2-[[(2R,3S,4S,5R,6S)-6-[(E,1S)-1-[(5R,8R,9R,10R,13R,14R,17S)-3-[(2R,3R,4S,5S,6R)-4,5-dihydroxy-6-methylol-3-[(2S,3R,4S,5S,6R)-3,4,5-trihydroxy-6-methylol-tetrahydropyran-2-yl]oxy-tetrahydropyran-2-yl]oxy-12-hydroxy-4,4,8,10,14-pentamethyl-2,3,5,6,7,9,11,12,13,15,16,17-dodecahydro-1H-cyclopenta[a]phenanthren-17-yl]-5-hydroxy-1,5-dimethyl-hex-3-enoxy]-3,4,5-trihydroxy-tetrahydropyran-2-yl]methoxy]-6-methylol-tetrahydropyran-3,4,5-triol

> <PUBCHEM_IUPAC_INCHI>
InChI=1S/C54H92O24/c1-49(2,70)13-9-14-54(8,78-47-43(69)39(65)36(62)28(75-47)22-71-45-41(67)37(63)33(59)25(19-55)72-45)23-10-16-53(7)32(23)24(58)18-30-51(5)15-12-31(50(3,4)29(51)11-17-52(30,53)6)76-48-44(40(66)35(61)27(21-57)74-48)77-46-42(68)38(64)34(60)26(20-56)73-46/h9,13,23-48,55-70H,10-12,14-22H2,1-8H3/b13-9+/t23-,24?,25+,26+,27+,28+,29-,30+,31?,32-,33+,34+,35+,36+,37-,38-,39-,40-,41+,42+,43+,44+,45+,46-,47-,48-,51-,52+,53+,54-/m0/s1

> <PUBCHEM_IUPAC_INCHIKEY>
NPZAABKZLIBPQV-DQESZZQPSA-N

> <PUBCHEM_XLOGP3_AA>
-1.4

> <PUBCHEM_EXACT_MASS>
1124.598

> <PUBCHEM_MOLECULAR_FORMULA>
C54H92O24

> <PUBCHEM_MOLECULAR_WEIGHT>
1125.306

> <PUBCHEM_OPENEYE_CAN_SMILES>
CC1(C2CCC3(C(C2(CCC1OC4C(C(C(C(O4)CO)O)O)OC5C(C(C(C(O5)CO)O)O)O)C)CC(C6C3(CCC6C(C)(CC=CC(C)(C)O)OC7C(C(C(C(O7)COC8C(C(C(C(O8)CO)O)O)O)O)O)O)C)O)C)C

> <PUBCHEM_OPENEYE_ISO_SMILES>
C[C@]12CCC(C([C@@H]1CC[C@@]3([C@@H]2CC([C@H]4[C@]3(CC[C@@H]4[C@](C)(C/C=C/C(C)(C)O)O[C@H]5[C@@H]([C@H]([C@@H]([C@H](O5)CO[C@H]6[C@@H]([C@H]([C@@H]([C@H](O6)CO)O)O)O)O)O)O)C)O)C)(C)C)O[C@H]7[C@@H]([C@H]([C@@H]([C@H](O7)CO)O)O)O[C@H]8[C@@H]([C@H]([C@@H]([C@H](O8)CO)O)O)O

> <PUBCHEM_CACTVS_TPSA>
398

> <PUBCHEM_MONOISOTOPIC_WEIGHT>
1124.598

> <PUBCHEM_TOTAL_CHARGE>
0

> <PUBCHEM_HEAVY_ATOM_COUNT>
78

> <PUBCHEM_ATOM_DEF_STEREO_COUNT>
28

> <PUBCHEM_ATOM_UDEF_STEREO_COUNT>
2

> <PUBCHEM_BOND_DEF_STEREO_COUNT>
1

> <PUBCHEM_BOND_UDEF_STEREO_COUNT>
0

> <PUBCHEM_ISOTOPIC_ATOM_COUNT>
0

> <PUBCHEM_COMPONENT_COUNT>
1

> <PUBCHEM_CACTVS_TAUTO_COUNT>
1

> <PUBCHEM_COORDINATE_TYPE>
1
5
255

> <PUBCHEM_BONDANNOTATIONS>
34  1  3
60  10  6
61  11  5
72  13  6
68  16  6
69  17  5
71  19  6
43  2  3
50  2  5
74  21  5
75  22  6
77  23  5
25  40  5
26  41  6
27  79  6
28  42  5
29  80  5
44  3  5
51  3  6
30  81  6
33  86  6
58  63  5
59  64  6
53  6  6
65  6  5
54  7  5
70  73  5
76  78  6
56  8  5
57  9  6

$$$$
