15550385
  -OEChem-12071809242D

 40 41  0     1  0  0  0  0  0999 V2000
    6.3301    0.4050    0.0000 O   0  0  0  0  0  0  0  0  0  0  0  0
    2.8660    2.4050    0.0000 O   0  0  0  0  0  0  0  0  0  0  0  0
    2.8660   -3.5950    0.0000 O   0  0  0  0  0  0  0  0  0  0  0  0
    4.5981    2.4050    0.0000 N   0  0  0  0  0  0  0  0  0  0  0  0
    4.5981    0.4050    0.0000 N   0  0  0  0  0  0  0  0  0  0  0  0
    5.4641    1.9050    0.0000 C   0  0  1  0  0  0  0  0  0  0  0  0
    6.3301    2.4050    0.0000 C   0  0  0  0  0  0  0  0  0  0  0  0
    3.7320    0.9050    0.0000 C   0  0  2  0  0  0  0  0  0  0  0  0
    6.3301    3.4050    0.0000 C   0  0  0  0  0  0  0  0  0  0  0  0
    5.4641    0.9050    0.0000 C   0  0  0  0  0  0  0  0  0  0  0  0
    3.7320    1.9050    0.0000 C   0  0  0  0  0  0  0  0  0  0  0  0
    2.8660    0.4050    0.0000 C   0  0  0  0  0  0  0  0  0  0  0  0
    7.1962    3.9050    0.0000 C   0  0  0  0  0  0  0  0  0  0  0  0
    5.4641    3.9050    0.0000 C   0  0  0  0  0  0  0  0  0  0  0  0
    2.8660   -0.5950    0.0000 C   0  0  0  0  0  0  0  0  0  0  0  0
    2.0000   -1.0950    0.0000 C   0  0  0  0  0  0  0  0  0  0  0  0
    3.7320   -1.0950    0.0000 C   0  0  0  0  0  0  0  0  0  0  0  0
    2.0000   -2.0950    0.0000 C   0  0  0  0  0  0  0  0  0  0  0  0
    3.7320   -2.0950    0.0000 C   0  0  0  0  0  0  0  0  0  0  0  0
    2.8660   -2.5950    0.0000 C   0  0  0  0  0  0  0  0  0  0  0  0
    5.4641    2.5250    0.0000 H   0  0  0  0  0  0  0  0  0  0  0  0
    6.5422    1.8224    0.0000 H   0  0  0  0  0  0  0  0  0  0  0  0
    6.9407    2.5127    0.0000 H   0  0  0  0  0  0  0  0  0  0  0  0
    3.7320    0.2850    0.0000 H   0  0  0  0  0  0  0  0  0  0  0  0
    6.8671    3.0950    0.0000 H   0  0  0  0  0  0  0  0  0  0  0  0
    4.5981    3.0250    0.0000 H   0  0  0  0  0  0  0  0  0  0  0  0
    4.5981   -0.2150    0.0000 H   0  0  0  0  0  0  0  0  0  0  0  0
    2.6540    0.9876    0.0000 H   0  0  0  0  0  0  0  0  0  0  0  0
    2.2554    0.2973    0.0000 H   0  0  0  0  0  0  0  0  0  0  0  0
    5.7741    4.4419    0.0000 H   0  0  0  0  0  0  0  0  0  0  0  0
    4.9272    4.2150    0.0000 H   0  0  0  0  0  0  0  0  0  0  0  0
    5.1541    3.3681    0.0000 H   0  0  0  0  0  0  0  0  0  0  0  0
    7.5062    3.3681    0.0000 H   0  0  0  0  0  0  0  0  0  0  0  0
    7.7331    4.2150    0.0000 H   0  0  0  0  0  0  0  0  0  0  0  0
    6.8862    4.4419    0.0000 H   0  0  0  0  0  0  0  0  0  0  0  0
    1.4631   -0.7850    0.0000 H   0  0  0  0  0  0  0  0  0  0  0  0
    4.2690   -0.7850    0.0000 H   0  0  0  0  0  0  0  0  0  0  0  0
    1.4631   -2.4050    0.0000 H   0  0  0  0  0  0  0  0  0  0  0  0
    4.2690   -2.4050    0.0000 H   0  0  0  0  0  0  0  0  0  0  0  0
    2.3291   -3.9050    0.0000 H   0  0  0  0  0  0  0  0  0  0  0  0
  1 10  2  0  0  0  0
  2 11  2  0  0  0  0
  3 20  1  0  0  0  0
  3 40  1  0  0  0  0
  4  6  1  0  0  0  0
  4 11  1  0  0  0  0
  4 26  1  0  0  0  0
  5  8  1  0  0  0  0
  5 10  1  0  0  0  0
  5 27  1  0  0  0  0
  6  7  1  1  0  0  0
  6 10  1  0  0  0  0
  6 21  1  0  0  0  0
  7  9  1  0  0  0  0
  7 22  1  0  0  0  0
  7 23  1  0  0  0  0
  8 11  1  0  0  0  0
  8 12  1  1  0  0  0
  8 24  1  0  0  0  0
  9 13  1  0  0  0  0
  9 14  1  0  0  0  0
  9 25  1  0  0  0  0
 12 15  1  0  0  0  0
 12 28  1  0  0  0  0
 12 29  1  0  0  0  0
 13 33  1  0  0  0  0
 13 34  1  0  0  0  0
 13 35  1  0  0  0  0
 14 30  1  0  0  0  0
 14 31  1  0  0  0  0
 14 32  1  0  0  0  0
 15 16  2  0  0  0  0
 15 17  1  0  0  0  0
 16 18  1  0  0  0  0
 16 36  1  0  0  0  0
 17 19  2  0  0  0  0
 17 37  1  0  0  0  0
 18 20  2  0  0  0  0
 18 38  1  0  0  0  0
 19 20  1  0  0  0  0
 19 39  1  0  0  0  0
M  END
> <PUBCHEM_COMPOUND_CID>
15550385

> <PUBCHEM_COMPOUND_CANONICALIZED>
1

> <PUBCHEM_CACTVS_COMPLEXITY>
362

> <PUBCHEM_CACTVS_HBOND_ACCEPTOR>
3

> <PUBCHEM_CACTVS_HBOND_DONOR>
3

> <PUBCHEM_CACTVS_ROTATABLE_BOND>
4

> <PUBCHEM_CACTVS_SUBSKEYS>
AAADceBzMAAAAAAAAAAAAAAAAAAAAAAAAAA8QAAAAAAAAAABAAAAHgAQCAAADSzBmAQyBoLAAgCIAiFSEAACAAAgIAAIiIGOCIgIZjKCkTOUcAAk1hGImAeYyKCOIAAAAAAAAABAAAAAAAAAAAAAAAAAAA==

> <PUBCHEM_IUPAC_OPENEYE_NAME>
(3S,6S)-3-[(4-hydroxyphenyl)methyl]-6-isobutyl-piperazine-2,5-dione

> <PUBCHEM_IUPAC_CAS_NAME>
(3S,6S)-3-[(4-hydroxyphenyl)methyl]-6-(2-methylpropyl)piperazine-2,5-dione

> <PUBCHEM_IUPAC_NAME>
(3S,6S)-3-[(4-hydroxyphenyl)methyl]-6-(2-methylpropyl)piperazine-2,5-dione

> <PUBCHEM_IUPAC_SYSTEMATIC_NAME>
(3S,6S)-3-[(4-hydroxyphenyl)methyl]-6-(2-methylpropyl)piperazine-2,5-dione

> <PUBCHEM_IUPAC_TRADITIONAL_NAME>
(3S,6S)-3-(4-hydroxybenzyl)-6-isobutyl-piperazine-2,5-quinone

> <PUBCHEM_IUPAC_INCHI>
InChI=1S/C15H20N2O3/c1-9(2)7-12-14(19)17-13(15(20)16-12)8-10-3-5-11(18)6-4-10/h3-6,9,12-13,18H,7-8H2,1-2H3,(H,16,20)(H,17,19)/t12-,13-/m0/s1

> <PUBCHEM_IUPAC_INCHIKEY>
GENSLUDVKWKQMX-STQMWFEESA-N

> <PUBCHEM_XLOGP3_AA>
2

> <PUBCHEM_EXACT_MASS>
276.147

> <PUBCHEM_MOLECULAR_FORMULA>
C15H20N2O3

> <PUBCHEM_MOLECULAR_WEIGHT>
276.336

> <PUBCHEM_OPENEYE_CAN_SMILES>
CC(C)CC1C(=O)NC(C(=O)N1)CC2=CC=C(C=C2)O

> <PUBCHEM_OPENEYE_ISO_SMILES>
CC(C)C[C@H]1C(=O)N[C@H](C(=O)N1)CC2=CC=C(C=C2)O

> <PUBCHEM_CACTVS_TPSA>
78.4

> <PUBCHEM_MONOISOTOPIC_WEIGHT>
276.147

> <PUBCHEM_TOTAL_CHARGE>
0

> <PUBCHEM_HEAVY_ATOM_COUNT>
20

> <PUBCHEM_ATOM_DEF_STEREO_COUNT>
2

> <PUBCHEM_ATOM_UDEF_STEREO_COUNT>
0

> <PUBCHEM_BOND_DEF_STEREO_COUNT>
0

> <PUBCHEM_BOND_UDEF_STEREO_COUNT>
0

> <PUBCHEM_ISOTOPIC_ATOM_COUNT>
0

> <PUBCHEM_COMPONENT_COUNT>
1

> <PUBCHEM_CACTVS_TAUTO_COUNT>
18

> <PUBCHEM_COORDINATE_TYPE>
1
5
255

> <PUBCHEM_BONDANNOTATIONS>
15  16  8
15  17  8
16  18  8
17  19  8
18  20  8
19  20  8
6  7  5
8  12  5

$$$$
