11378574
  -OEChem-12071809322D

 24 23  0     1  0  0  0  0  0999 V2000
    8.5991   -0.0950    0.0000 O   0  0  0  0  0  0  0  0  0  0  0  0
    7.7331    1.4050    0.0000 O   0  0  0  0  0  0  0  0  0  0  0  0
    6.8671   -1.0950    0.0000 N   0  0  0  0  0  0  0  0  0  0  0  0
    2.5369   -0.5950    0.0000 N   0  0  0  0  0  0  0  0  0  0  0  0
    5.1350   -0.0950    0.0000 C   1  0  0  0  0  0  0  0  0  0  0  0
    6.0010    0.4050    0.0000 C   0  0  0  0  0  0  0  0  0  0  0  0
    4.2690   -0.5950    0.0000 C   0  0  0  0  0  0  0  0  0  0  0  0
    6.8671   -0.0950    0.0000 C   0  0  1  0  0  0  0  0  0  0  0  0
    3.4030   -0.0950    0.0000 C   0  0  0  0  0  0  0  0  0  0  0  0
    7.7331    0.4050    0.0000 C   0  0  0  0  0  0  0  0  0  0  0  0
    4.8250    0.4419    0.0000 H   0  0  0  0  0  0  0  0  0  0  0  0
    5.4450   -0.6319    0.0000 H   0  0  0  0  0  0  0  0  0  0  0  0
    6.3996    0.8799    0.0000 H   0  0  0  0  0  0  0  0  0  0  0  0
    5.6025    0.8799    0.0000 H   0  0  0  0  0  0  0  0  0  0  0  0
    3.8705   -1.0700    0.0000 H   0  0  0  0  0  0  0  0  0  0  0  0
    4.6675   -1.0700    0.0000 H   0  0  0  0  0  0  0  0  0  0  0  0
    6.3301   -0.4050    0.0000 H   0  0  0  0  0  0  0  0  0  0  0  0
    3.8015    0.3799    0.0000 H   0  0  0  0  0  0  0  0  0  0  0  0
    3.0044    0.3799    0.0000 H   0  0  0  0  0  0  0  0  0  0  0  0
    7.4040   -1.4050    0.0000 H   0  0  0  0  0  0  0  0  0  0  0  0
    6.3301   -1.4050    0.0000 H   0  0  0  0  0  0  0  0  0  0  0  0
    2.0000   -0.2850    0.0000 H   0  0  0  0  0  0  0  0  0  0  0  0
    2.5369   -1.2150    0.0000 H   0  0  0  0  0  0  0  0  0  0  0  0
    9.1360    0.2150    0.0000 H   0  0  0  0  0  0  0  0  0  0  0  0
  1 10  1  0  0  0  0
  1 24  1  0  0  0  0
  2 10  2  0  0  0  0
  8  3  1  1  0  0  0
  3 20  1  0  0  0  0
  3 21  1  0  0  0  0
  4  9  1  0  0  0  0
  4 22  1  0  0  0  0
  4 23  1  0  0  0  0
  5  6  1  0  0  0  0
  5  7  1  0  0  0  0
  5 11  1  0  0  0  0
  5 12  1  0  0  0  0
  6  8  1  0  0  0  0
  6 13  1  0  0  0  0
  6 14  1  0  0  0  0
  7  9  1  0  0  0  0
  7 15  1  0  0  0  0
  7 16  1  0  0  0  0
  8 10  1  0  0  0  0
  8 17  1  0  0  0  0
  9 18  1  0  0  0  0
  9 19  1  0  0  0  0
M  ISO  1   5  13
M  END
> <PUBCHEM_COMPOUND_CID>
11378574

> <PUBCHEM_COMPOUND_CANONICALIZED>
1

> <PUBCHEM_CACTVS_COMPLEXITY>
106

> <PUBCHEM_CACTVS_HBOND_ACCEPTOR>
4

> <PUBCHEM_CACTVS_HBOND_DONOR>
3

> <PUBCHEM_CACTVS_ROTATABLE_BOND>
5

> <PUBCHEM_CACTVS_SUBSKEYS>
AAADccBjMAAAAAAAAAAAAAAAAAAAAAAAAAAAAAAAAAAAAAAAAAAAHgAQCAAACCjBgAQACABAAgAIAACQCAAAAAAAAAAAAIGAAAACABIAgAAAQAAEEAAAAAGYSAAAAAAAAAAAAAAAAAAAAAAAAAAAAAAAAA==

> <PUBCHEM_IUPAC_OPENEYE_NAME>
(2S)-2,6-diaminohexanoic acid

> <PUBCHEM_IUPAC_CAS_NAME>
(2S)-2,6-diaminohexanoic acid

> <PUBCHEM_IUPAC_NAME>
(2S)-2,6-diaminohexanoic acid

> <PUBCHEM_IUPAC_SYSTEMATIC_NAME>
(2S)-2,6-bis(azanyl)hexanoic acid

> <PUBCHEM_IUPAC_TRADITIONAL_NAME>
(2S)-2,6-diaminohexanoic acid

> <PUBCHEM_IUPAC_INCHI>
InChI=1S/C6H14N2O2/c7-4-2-1-3-5(8)6(9)10/h5H,1-4,7-8H2,(H,9,10)/t5-/m0/s1/i1+1

> <PUBCHEM_IUPAC_INCHIKEY>
KDXKERNSBIXSRK-BXMHHZGSSA-N

> <PUBCHEM_XLOGP3>
-3

> <PUBCHEM_EXACT_MASS>
147.109

> <PUBCHEM_MOLECULAR_FORMULA>
C6H14N2O2

> <PUBCHEM_MOLECULAR_WEIGHT>
147.182

> <PUBCHEM_OPENEYE_CAN_SMILES>
C(CCN)CC(C(=O)O)N

> <PUBCHEM_OPENEYE_ISO_SMILES>
C(CN)[13CH2]C[C@@H](C(=O)O)N

> <PUBCHEM_CACTVS_TPSA>
89.3

> <PUBCHEM_MONOISOTOPIC_WEIGHT>
147.109

> <PUBCHEM_TOTAL_CHARGE>
0

> <PUBCHEM_HEAVY_ATOM_COUNT>
10

> <PUBCHEM_ATOM_DEF_STEREO_COUNT>
1

> <PUBCHEM_ATOM_UDEF_STEREO_COUNT>
0

> <PUBCHEM_BOND_DEF_STEREO_COUNT>
0

> <PUBCHEM_BOND_UDEF_STEREO_COUNT>
0

> <PUBCHEM_ISOTOPIC_ATOM_COUNT>
1

> <PUBCHEM_COMPONENT_COUNT>
1

> <PUBCHEM_CACTVS_TAUTO_COUNT>
1

> <PUBCHEM_COORDINATE_TYPE>
1
5
255

> <PUBCHEM_BONDANNOTATIONS>
8  3  5

$$$$
