5315988
  -OEChem-12071809342D

 68 71  0     1  0  0  0  0  0999 V2000
    5.1350    1.1550    0.0000 O   0  0  0  0  0  0  0  0  0  0  0  0
    6.8671   -1.8450    0.0000 O   0  0  0  0  0  0  0  0  0  0  0  0
    6.0010    5.6550    0.0000 O   0  0  0  0  0  0  0  0  0  0  0  0
   10.3312    4.1550    0.0000 O   0  0  0  0  0  0  0  0  0  0  0  0
    2.5369    5.6550    0.0000 O   0  0  0  0  0  0  0  0  0  0  0  0
   10.3312   -1.8450    0.0000 O   0  0  0  0  0  0  0  0  0  0  0  0
    9.4651   -6.3450    0.0000 O   0  0  0  0  0  0  0  0  0  0  0  0
    6.8671    2.1550    0.0000 C   0  0  3  0  0  0  0  0  0  0  0  0
    6.0010    2.6550    0.0000 C   0  0  0  0  0  0  0  0  0  0  0  0
    6.8671    1.1550    0.0000 C   0  0  0  0  0  0  0  0  0  0  0  0
    6.0010    3.6550    0.0000 C   0  0  0  0  0  0  0  0  0  0  0  0
    7.7331    2.6550    0.0000 C   0  0  0  0  0  0  0  0  0  0  0  0
    7.7331    0.6550    0.0000 C   0  0  0  0  0  0  0  0  0  0  0  0
    7.7331   -0.3450    0.0000 C   0  0  0  0  0  0  0  0  0  0  0  0
    6.0010    0.6550    0.0000 C   0  0  0  0  0  0  0  0  0  0  0  0
    5.1350    4.1550    0.0000 C   0  0  0  0  0  0  0  0  0  0  0  0
    8.5991   -0.8450    0.0000 C   0  0  0  0  0  0  0  0  0  0  0  0
    8.5991    2.1550    0.0000 C   0  0  0  0  0  0  0  0  0  0  0  0
    7.7331    3.6550    0.0000 C   0  0  0  0  0  0  0  0  0  0  0  0
    6.8671   -0.8450    0.0000 C   0  0  0  0  0  0  0  0  0  0  0  0
    6.0010   -0.3450    0.0000 C   0  0  0  0  0  0  0  0  0  0  0  0
    8.5991   -1.8450    0.0000 C   0  0  0  0  0  0  0  0  0  0  0  0
    5.1350    5.1550    0.0000 C   0  0  0  0  0  0  0  0  0  0  0  0
    4.2690    3.6550    0.0000 C   0  0  0  0  0  0  0  0  0  0  0  0
    9.4651    2.6550    0.0000 C   0  0  0  0  0  0  0  0  0  0  0  0
    8.5991    4.1550    0.0000 C   0  0  0  0  0  0  0  0  0  0  0  0
    9.4651    3.6550    0.0000 C   0  0  0  0  0  0  0  0  0  0  0  0
    4.2690    5.6550    0.0000 C   0  0  0  0  0  0  0  0  0  0  0  0
    3.4030    4.1550    0.0000 C   0  0  0  0  0  0  0  0  0  0  0  0
    9.4651   -2.3450    0.0000 C   0  0  0  0  0  0  0  0  0  0  0  0
    3.4030    5.1550    0.0000 C   0  0  0  0  0  0  0  0  0  0  0  0
    9.4651   -3.3450    0.0000 C   0  0  0  0  0  0  0  0  0  0  0  0
    6.0010    6.6550    0.0000 C   0  0  0  0  0  0  0  0  0  0  0  0
    8.5991   -3.8450    0.0000 C   0  0  0  0  0  0  0  0  0  0  0  0
   10.3312   -3.8450    0.0000 C   0  0  0  0  0  0  0  0  0  0  0  0
    8.5991   -4.8450    0.0000 C   0  0  0  0  0  0  0  0  0  0  0  0
   10.3312   -4.8450    0.0000 C   0  0  0  0  0  0  0  0  0  0  0  0
    9.4651   -5.3450    0.0000 C   0  0  0  0  0  0  0  0  0  0  0  0
    6.3301    1.8450    0.0000 H   0  0  0  0  0  0  0  0  0  0  0  0
    5.3905    2.7627    0.0000 H   0  0  0  0  0  0  0  0  0  0  0  0
    5.7890    2.0724    0.0000 H   0  0  0  0  0  0  0  0  0  0  0  0
    6.6116    3.5473    0.0000 H   0  0  0  0  0  0  0  0  0  0  0  0
    6.2131    4.2376    0.0000 H   0  0  0  0  0  0  0  0  0  0  0  0
    8.2700    0.9650    0.0000 H   0  0  0  0  0  0  0  0  0  0  0  0
    9.2097   -0.9527    0.0000 H   0  0  0  0  0  0  0  0  0  0  0  0
    8.8112   -0.2624    0.0000 H   0  0  0  0  0  0  0  0  0  0  0  0
    8.5991    1.5350    0.0000 H   0  0  0  0  0  0  0  0  0  0  0  0
    7.1962    3.9650    0.0000 H   0  0  0  0  0  0  0  0  0  0  0  0
    5.4641   -0.6550    0.0000 H   0  0  0  0  0  0  0  0  0  0  0  0
    7.9885   -1.7373    0.0000 H   0  0  0  0  0  0  0  0  0  0  0  0
    8.3871   -2.4276    0.0000 H   0  0  0  0  0  0  0  0  0  0  0  0
    4.2690    3.0350    0.0000 H   0  0  0  0  0  0  0  0  0  0  0  0
   10.0021    2.3450    0.0000 H   0  0  0  0  0  0  0  0  0  0  0  0
    8.5991    4.7750    0.0000 H   0  0  0  0  0  0  0  0  0  0  0  0
    4.2690    6.2750    0.0000 H   0  0  0  0  0  0  0  0  0  0  0  0
    4.5981    0.8450    0.0000 H   0  0  0  0  0  0  0  0  0  0  0  0
    2.8660    3.8450    0.0000 H   0  0  0  0  0  0  0  0  0  0  0  0
    6.3301   -2.1550    0.0000 H   0  0  0  0  0  0  0  0  0  0  0  0
   10.3312    4.7750    0.0000 H   0  0  0  0  0  0  0  0  0  0  0  0
    6.6210    6.6550    0.0000 H   0  0  0  0  0  0  0  0  0  0  0  0
    6.0010    7.2750    0.0000 H   0  0  0  0  0  0  0  0  0  0  0  0
    5.3810    6.6550    0.0000 H   0  0  0  0  0  0  0  0  0  0  0  0
    8.0622   -3.5350    0.0000 H   0  0  0  0  0  0  0  0  0  0  0  0
   10.8681   -3.5350    0.0000 H   0  0  0  0  0  0  0  0  0  0  0  0
    2.0000    5.3450    0.0000 H   0  0  0  0  0  0  0  0  0  0  0  0
    8.0622   -5.1550    0.0000 H   0  0  0  0  0  0  0  0  0  0  0  0
   10.8681   -5.1550    0.0000 H   0  0  0  0  0  0  0  0  0  0  0  0
   10.0021   -6.6550    0.0000 H   0  0  0  0  0  0  0  0  0  0  0  0
  1 15  1  0  0  0  0
  1 56  1  0  0  0  0
  2 20  1  0  0  0  0
  2 58  1  0  0  0  0
  3 23  1  0  0  0  0
  3 33  1  0  0  0  0
  4 27  1  0  0  0  0
  4 59  1  0  0  0  0
  5 31  1  0  0  0  0
  5 65  1  0  0  0  0
  6 30  2  0  0  0  0
  7 38  1  0  0  0  0
  7 68  1  0  0  0  0
  8  9  1  0  0  0  0
  8 10  1  0  0  0  0
  8 12  1  0  0  0  0
  8 39  1  0  0  0  0
  9 11  1  0  0  0  0
  9 40  1  0  0  0  0
  9 41  1  0  0  0  0
 10 13  1  0  0  0  0
 10 15  2  0  0  0  0
 11 16  1  0  0  0  0
 11 42  1  0  0  0  0
 11 43  1  0  0  0  0
 12 18  2  0  0  0  0
 12 19  1  0  0  0  0
 13 14  2  0  0  0  0
 13 44  1  0  0  0  0
 14 17  1  0  0  0  0
 14 20  1  0  0  0  0
 15 21  1  0  0  0  0
 16 23  2  0  0  0  0
 16 24  1  0  0  0  0
 17 22  1  0  0  0  0
 17 45  1  0  0  0  0
 17 46  1  0  0  0  0
 18 25  1  0  0  0  0
 18 47  1  0  0  0  0
 19 26  2  0  0  0  0
 19 48  1  0  0  0  0
 20 21  2  0  0  0  0
 21 49  1  0  0  0  0
 22 30  1  0  0  0  0
 22 50  1  0  0  0  0
 22 51  1  0  0  0  0
 23 28  1  0  0  0  0
 24 29  2  0  0  0  0
 24 52  1  0  0  0  0
 25 27  2  0  0  0  0
 25 53  1  0  0  0  0
 26 27  1  0  0  0  0
 26 54  1  0  0  0  0
 28 31  2  0  0  0  0
 28 55  1  0  0  0  0
 29 31  1  0  0  0  0
 29 57  1  0  0  0  0
 30 32  1  0  0  0  0
 32 34  2  0  0  0  0
 32 35  1  0  0  0  0
 33 60  1  0  0  0  0
 33 61  1  0  0  0  0
 33 62  1  0  0  0  0
 34 36  1  0  0  0  0
 34 63  1  0  0  0  0
 35 37  2  0  0  0  0
 35 64  1  0  0  0  0
 36 38  2  0  0  0  0
 36 66  1  0  0  0  0
 37 38  1  0  0  0  0
 37 67  1  0  0  0  0
M  END
> <PUBCHEM_COMPOUND_CID>
5315988

> <PUBCHEM_COMPOUND_CANONICALIZED>
1

> <PUBCHEM_CACTVS_COMPLEXITY>
715

> <PUBCHEM_CACTVS_HBOND_ACCEPTOR>
7

> <PUBCHEM_CACTVS_HBOND_DONOR>
5

> <PUBCHEM_CACTVS_ROTATABLE_BOND>
10

> <PUBCHEM_CACTVS_SUBSKEYS>
AAADceB4OAAAAAAAAAAAAAAAAAAAAAAAAAAwYMGAAAAAAAABVAAAGgAACAAADQSAmAIyBoAABgCIAqBSAAACCAAkIAAIiAEGCMgMJzKGNRqAcSAlwBUIuYeI7PzOoAACCAAIAABAAAQQABAAAAAAAAAAAA==

> <PUBCHEM_IUPAC_OPENEYE_NAME>
3-[2,4-dihydroxy-5-[3-(4-hydroxy-2-methoxy-phenyl)-1-(4-hydroxyphenyl)propyl]phenyl]-1-(4-hydroxyphenyl)propan-1-one

> <PUBCHEM_IUPAC_CAS_NAME>
3-[2,4-dihydroxy-5-[3-(4-hydroxy-2-methoxyphenyl)-1-(4-hydroxyphenyl)propyl]phenyl]-1-(4-hydroxyphenyl)-1-propanone

> <PUBCHEM_IUPAC_NAME>
3-[2,4-dihydroxy-5-[3-(4-hydroxy-2-methoxyphenyl)-1-(4-hydroxyphenyl)propyl]phenyl]-1-(4-hydroxyphenyl)propan-1-one

> <PUBCHEM_IUPAC_SYSTEMATIC_NAME>
1-(4-hydroxyphenyl)-3-[5-[1-(4-hydroxyphenyl)-3-(2-methoxy-4-oxidanyl-phenyl)propyl]-2,4-bis(oxidanyl)phenyl]propan-1-one

> <PUBCHEM_IUPAC_TRADITIONAL_NAME>
3-[2,4-dihydroxy-5-[3-(4-hydroxy-2-methoxy-phenyl)-1-(4-hydroxyphenyl)propyl]phenyl]-1-(4-hydroxyphenyl)propan-1-one

> <PUBCHEM_IUPAC_INCHI>
InChI=1S/C31H30O7/c1-38-31-17-25(34)13-6-21(31)7-14-26(19-2-9-23(32)10-3-19)27-16-22(29(36)18-30(27)37)8-15-28(35)20-4-11-24(33)12-5-20/h2-6,9-13,16-18,26,32-34,36-37H,7-8,14-15H2,1H3

> <PUBCHEM_IUPAC_INCHIKEY>
SFIYEXDIBBOYMW-UHFFFAOYSA-N

> <PUBCHEM_XLOGP3_AA>
5.9

> <PUBCHEM_EXACT_MASS>
514.199

> <PUBCHEM_MOLECULAR_FORMULA>
C31H30O7

> <PUBCHEM_MOLECULAR_WEIGHT>
514.574

> <PUBCHEM_OPENEYE_CAN_SMILES>
COC1=C(C=CC(=C1)O)CCC(C2=CC=C(C=C2)O)C3=C(C=C(C(=C3)CCC(=O)C4=CC=C(C=C4)O)O)O

> <PUBCHEM_OPENEYE_ISO_SMILES>
COC1=C(C=CC(=C1)O)CCC(C2=CC=C(C=C2)O)C3=C(C=C(C(=C3)CCC(=O)C4=CC=C(C=C4)O)O)O

> <PUBCHEM_CACTVS_TPSA>
127

> <PUBCHEM_MONOISOTOPIC_WEIGHT>
514.199

> <PUBCHEM_TOTAL_CHARGE>
0

> <PUBCHEM_HEAVY_ATOM_COUNT>
38

> <PUBCHEM_ATOM_DEF_STEREO_COUNT>
0

> <PUBCHEM_ATOM_UDEF_STEREO_COUNT>
1

> <PUBCHEM_BOND_DEF_STEREO_COUNT>
0

> <PUBCHEM_BOND_UDEF_STEREO_COUNT>
0

> <PUBCHEM_ISOTOPIC_ATOM_COUNT>
0

> <PUBCHEM_COMPONENT_COUNT>
1

> <PUBCHEM_CACTVS_TAUTO_COUNT>
378

> <PUBCHEM_COORDINATE_TYPE>
1
5
255

> <PUBCHEM_BONDANNOTATIONS>
10  13  8
10  15  8
12  18  8
12  19  8
13  14  8
14  20  8
15  21  8
16  23  8
16  24  8
18  25  8
19  26  8
20  21  8
23  28  8
24  29  8
25  27  8
26  27  8
28  31  8
29  31  8
32  34  8
32  35  8
34  36  8
35  37  8
36  38  8
37  38  8
8  9  3

$$$$
