121712
  -OEChem-12071809252D

 42 42  0     0  0  0  0  0  0999 V2000
    3.7320   -1.2500    0.0000 O   0  0  0  0  0  0  0  0  0  0  0  0
    7.1962    0.7500    0.0000 O   0  0  0  0  0  0  0  0  0  0  0  0
    4.5981    0.2500    0.0000 O   0  0  0  0  0  0  0  0  0  0  0  0
    5.4641    0.7500    0.0000 O   0  0  0  0  0  0  0  0  0  0  0  0
    2.8660   -0.7500    0.0000 C   0  0  0  0  0  0  0  0  0  0  0  0
    7.1962    1.7500    0.0000 C   0  0  0  0  0  0  0  0  0  0  0  0
    7.1962    2.7500    0.0000 C   0  0  0  0  0  0  0  0  0  0  0  0
    8.1962    1.7500    0.0000 C   0  0  0  0  0  0  0  0  0  0  0  0
    2.0000   -0.2500    0.0000 C   0  0  0  0  0  0  0  0  0  0  0  0
    2.3660   -1.6160    0.0000 C   0  0  0  0  0  0  0  0  0  0  0  0
    3.3660    0.1160    0.0000 C   0  0  0  0  0  0  0  0  0  0  0  0
    6.1962    1.7500    0.0000 C   0  0  0  0  0  0  0  0  0  0  0  0
    6.3301   -0.7500    0.0000 C   0  0  0  0  0  0  0  0  0  0  0  0
    5.4641   -1.2500    0.0000 C   0  0  0  0  0  0  0  0  0  0  0  0
    6.3301    0.2500    0.0000 C   0  0  0  0  0  0  0  0  0  0  0  0
    4.5981   -0.7500    0.0000 C   0  0  0  0  0  0  0  0  0  0  0  0
    7.1962   -1.2500    0.0000 C   0  0  0  0  0  0  0  0  0  0  0  0
    5.4641   -2.2500    0.0000 C   0  0  0  0  0  0  0  0  0  0  0  0
    6.3301   -2.7500    0.0000 C   0  0  0  0  0  0  0  0  0  0  0  0
    7.1962   -2.2500    0.0000 C   0  0  0  0  0  0  0  0  0  0  0  0
    2.3100    0.2869    0.0000 H   0  0  0  0  0  0  0  0  0  0  0  0
    1.4631    0.0600    0.0000 H   0  0  0  0  0  0  0  0  0  0  0  0
    1.6900   -0.7869    0.0000 H   0  0  0  0  0  0  0  0  0  0  0  0
    1.8291   -1.3060    0.0000 H   0  0  0  0  0  0  0  0  0  0  0  0
    2.0560   -2.1530    0.0000 H   0  0  0  0  0  0  0  0  0  0  0  0
    2.9030   -1.9260    0.0000 H   0  0  0  0  0  0  0  0  0  0  0  0
    3.9030   -0.1940    0.0000 H   0  0  0  0  0  0  0  0  0  0  0  0
    3.6760    0.6530    0.0000 H   0  0  0  0  0  0  0  0  0  0  0  0
    2.8291    0.4260    0.0000 H   0  0  0  0  0  0  0  0  0  0  0  0
    6.1962    2.3700    0.0000 H   0  0  0  0  0  0  0  0  0  0  0  0
    5.5762    1.7500    0.0000 H   0  0  0  0  0  0  0  0  0  0  0  0
    6.1962    1.1300    0.0000 H   0  0  0  0  0  0  0  0  0  0  0  0
    8.1962    1.1300    0.0000 H   0  0  0  0  0  0  0  0  0  0  0  0
    8.8162    1.7500    0.0000 H   0  0  0  0  0  0  0  0  0  0  0  0
    8.1962    2.3700    0.0000 H   0  0  0  0  0  0  0  0  0  0  0  0
    7.8162    2.7500    0.0000 H   0  0  0  0  0  0  0  0  0  0  0  0
    7.1962    3.3700    0.0000 H   0  0  0  0  0  0  0  0  0  0  0  0
    6.5762    2.7500    0.0000 H   0  0  0  0  0  0  0  0  0  0  0  0
    7.7331   -0.9400    0.0000 H   0  0  0  0  0  0  0  0  0  0  0  0
    4.9272   -2.5600    0.0000 H   0  0  0  0  0  0  0  0  0  0  0  0
    7.7331   -2.5600    0.0000 H   0  0  0  0  0  0  0  0  0  0  0  0
    6.3301   -3.3700    0.0000 H   0  0  0  0  0  0  0  0  0  0  0  0
  1  5  1  0  0  0  0
  1 16  1  0  0  0  0
  2  6  1  0  0  0  0
  2 15  1  0  0  0  0
  3 16  2  0  0  0  0
  4 15  2  0  0  0  0
  5  9  1  0  0  0  0
  5 10  1  0  0  0  0
  5 11  1  0  0  0  0
  6  7  1  0  0  0  0
  6  8  1  0  0  0  0
  6 12  1  0  0  0  0
  7 36  1  0  0  0  0
  7 37  1  0  0  0  0
  7 38  1  0  0  0  0
  8 33  1  0  0  0  0
  8 34  1  0  0  0  0
  8 35  1  0  0  0  0
  9 21  1  0  0  0  0
  9 22  1  0  0  0  0
  9 23  1  0  0  0  0
 10 24  1  0  0  0  0
 10 25  1  0  0  0  0
 10 26  1  0  0  0  0
 11 27  1  0  0  0  0
 11 28  1  0  0  0  0
 11 29  1  0  0  0  0
 12 30  1  0  0  0  0
 12 31  1  0  0  0  0
 12 32  1  0  0  0  0
 13 14  1  0  0  0  0
 13 15  1  0  0  0  0
 13 17  2  0  0  0  0
 14 16  1  0  0  0  0
 14 18  2  0  0  0  0
 17 20  1  0  0  0  0
 17 39  1  0  0  0  0
 18 19  1  0  0  0  0
 18 40  1  0  0  0  0
 19 20  2  0  0  0  0
 19 42  1  0  0  0  0
 20 41  1  0  0  0  0
M  END
> <PUBCHEM_COMPOUND_CID>
121712

> <PUBCHEM_COMPOUND_CANONICALIZED>
1

> <PUBCHEM_CACTVS_COMPLEXITY>
324

> <PUBCHEM_CACTVS_HBOND_ACCEPTOR>
4

> <PUBCHEM_CACTVS_HBOND_DONOR>
0

> <PUBCHEM_CACTVS_ROTATABLE_BOND>
6

> <PUBCHEM_CACTVS_SUBSKEYS>
AAADceB4OAAAAAAAAAAAAAAAAAAAAAAAAAAwAAAAAAAAAAABAAAAGgAAAAAADESAmAAyCIAABACIAiDSCAACAAAkAAAIiAEACMgIJjKANRiCMQAkwAEIqYfLyKCOgAAAAAAQAAAAAAAAACAAAAAAAAAAAA==

> <PUBCHEM_IUPAC_OPENEYE_NAME>
ditert-butyl benzene-1,2-dicarboxylate

> <PUBCHEM_IUPAC_CAS_NAME>
benzene-1,2-dicarboxylic acid ditert-butyl ester

> <PUBCHEM_IUPAC_NAME>
ditert-butyl benzene-1,2-dicarboxylate

> <PUBCHEM_IUPAC_SYSTEMATIC_NAME>
ditert-butyl benzene-1,2-dicarboxylate

> <PUBCHEM_IUPAC_TRADITIONAL_NAME>
benzene-1,2-dicarboxylic acid ditert-butyl ester

> <PUBCHEM_IUPAC_INCHI>
InChI=1S/C16H22O4/c1-15(2,3)19-13(17)11-9-7-8-10-12(11)14(18)20-16(4,5)6/h7-10H,1-6H3

> <PUBCHEM_IUPAC_INCHIKEY>
RYCNBIYTZSGSPI-UHFFFAOYSA-N

> <PUBCHEM_XLOGP3>
3.5

> <PUBCHEM_EXACT_MASS>
278.152

> <PUBCHEM_MOLECULAR_FORMULA>
C16H22O4

> <PUBCHEM_MOLECULAR_WEIGHT>
278.348

> <PUBCHEM_OPENEYE_CAN_SMILES>
CC(C)(C)OC(=O)C1=CC=CC=C1C(=O)OC(C)(C)C

> <PUBCHEM_OPENEYE_ISO_SMILES>
CC(C)(C)OC(=O)C1=CC=CC=C1C(=O)OC(C)(C)C

> <PUBCHEM_CACTVS_TPSA>
52.6

> <PUBCHEM_MONOISOTOPIC_WEIGHT>
278.152

> <PUBCHEM_TOTAL_CHARGE>
0

> <PUBCHEM_HEAVY_ATOM_COUNT>
20

> <PUBCHEM_ATOM_DEF_STEREO_COUNT>
0

> <PUBCHEM_ATOM_UDEF_STEREO_COUNT>
0

> <PUBCHEM_BOND_DEF_STEREO_COUNT>
0

> <PUBCHEM_BOND_UDEF_STEREO_COUNT>
0

> <PUBCHEM_ISOTOPIC_ATOM_COUNT>
0

> <PUBCHEM_COMPONENT_COUNT>
1

> <PUBCHEM_CACTVS_TAUTO_COUNT>
1

> <PUBCHEM_COORDINATE_TYPE>
1
5
255

> <PUBCHEM_BONDANNOTATIONS>
13  14  8
13  17  8
14  18  8
17  20  8
18  19  8
19  20  8

$$$$
