13786591
  -OEChem-12071809322D

100104  0     1  0  0  0  0  0999 V2000
    8.0703   -2.6344    0.0000 O   0  0  0  0  0  0  0  0  0  0  0  0
    7.2101   -1.1311    0.0000 O   0  0  0  0  0  0  0  0  0  0  0  0
    2.0101   -2.1110    0.0000 O   0  0  0  0  0  0  0  0  0  0  0  0
    2.0024   -4.1110    0.0000 O   0  0  0  0  0  0  0  0  0  0  0  0
   13.4634    0.4180    0.0000 C   0  0  1  0  0  0  0  0  0  0  0  0
   13.4634   -0.5820    0.0000 C   0  0  2  0  0  0  0  0  0  0  0  0
   12.5974   -1.0820    0.0000 C   0  0  1  0  0  0  0  0  0  0  0  0
   11.7313   -0.5820    0.0000 C   0  0  1  0  0  0  0  0  0  0  0  0
   10.8213   -1.0889    0.0000 C   0  0  2  0  0  0  0  0  0  0  0  0
   14.4096    0.7227    0.0000 C   0  0  2  0  0  0  0  0  0  0  0  0
   12.5974    0.9180    0.0000 C   0  0  0  0  0  0  0  0  0  0  0  0
   10.8133   -2.1305    0.0000 C   0  0  1  0  0  0  0  0  0  0  0  0
   11.7313    0.4180    0.0000 C   0  0  0  0  0  0  0  0  0  0  0  0
   14.4096   -0.8868    0.0000 C   0  0  0  0  0  0  0  0  0  0  0  0
   12.6134   -2.1236    0.0000 C   0  0  0  0  0  0  0  0  0  0  0  0
   14.9932   -0.0820    0.0000 C   0  0  0  0  0  0  0  0  0  0  0  0
   11.7154   -2.6513    0.0000 C   0  0  0  0  0  0  0  0  0  0  0  0
    9.8945   -0.5248    0.0000 C   0  0  0  0  0  0  0  0  0  0  0  0
   13.4634    1.4180    0.0000 C   0  0  0  0  0  0  0  0  0  0  0  0
   14.7203    1.6732    0.0000 C   0  0  1  0  0  0  0  0  0  0  0  0
    9.8779   -2.6802    0.0000 C   0  0  0  0  0  0  0  0  0  0  0  0
   10.8290   -0.0889    0.0000 C   0  0  0  0  0  0  0  0  0  0  0  0
    8.9466   -1.0528    0.0000 C   0  0  0  0  0  0  0  0  0  0  0  0
    8.9382   -2.1377    0.0000 C   0  0  2  0  0  0  0  0  0  0  0  0
   15.6988    1.8794    0.0000 C   0  0  0  0  0  0  0  0  0  0  0  0
   14.0524    2.4175    0.0000 C   0  0  0  0  0  0  0  0  0  0  0  0
   16.0094    2.8300    0.0000 C   0  0  0  0  0  0  0  0  0  0  0  0
   16.9879    3.0362    0.0000 C   0  0  2  0  0  0  0  0  0  0  0  0
    7.2062   -2.1310    0.0000 C   0  0  0  0  0  0  0  0  0  0  0  0
   17.2986    3.9867    0.0000 C   0  0  0  0  0  0  0  0  0  0  0  0
   17.6558    2.2919    0.0000 C   0  0  0  0  0  0  0  0  0  0  0  0
    6.3383   -2.6277    0.0000 C   0  0  0  0  0  0  0  0  0  0  0  0
   18.2771    4.1929    0.0000 C   0  0  0  0  0  0  0  0  0  0  0  0
   16.6308    4.7310    0.0000 C   0  0  0  0  0  0  0  0  0  0  0  0
    5.4742   -2.1244    0.0000 C   0  0  0  0  0  0  0  0  0  0  0  0
    4.6062   -2.6210    0.0000 C   0  0  0  0  0  0  0  0  0  0  0  0
    3.7421   -2.1177    0.0000 C   0  0  0  0  0  0  0  0  0  0  0  0
    4.6024   -3.6210    0.0000 C   0  0  0  0  0  0  0  0  0  0  0  0
    2.8742   -2.6143    0.0000 C   0  0  0  0  0  0  0  0  0  0  0  0
    3.7344   -4.1177    0.0000 C   0  0  0  0  0  0  0  0  0  0  0  0
    2.8703   -3.6143    0.0000 C   0  0  0  0  0  0  0  0  0  0  0  0
    2.0140   -1.1110    0.0000 C   0  0  0  0  0  0  0  0  0  0  0  0
   13.5533   -1.4273    0.0000 H   0  0  0  0  0  0  0  0  0  0  0  0
   13.3367   -1.5014    0.0000 H   0  0  0  0  0  0  0  0  0  0  0  0
   12.4675   -0.1570    0.0000 H   0  0  0  0  0  0  0  0  0  0  0  0
   15.2493    0.8546    0.0000 H   0  0  0  0  0  0  0  0  0  0  0  0
   12.9959    1.3929    0.0000 H   0  0  0  0  0  0  0  0  0  0  0  0
   12.1988    1.3929    0.0000 H   0  0  0  0  0  0  0  0  0  0  0  0
   10.8166   -2.9805    0.0000 H   0  0  0  0  0  0  0  0  0  0  0  0
   11.5193    1.0006    0.0000 H   0  0  0  0  0  0  0  0  0  0  0  0
   11.1208    0.3103    0.0000 H   0  0  0  0  0  0  0  0  0  0  0  0
   14.1586   -1.4537    0.0000 H   0  0  0  0  0  0  0  0  0  0  0  0
   14.9470   -1.1960    0.0000 H   0  0  0  0  0  0  0  0  0  0  0  0
   12.8315   -2.7040    0.0000 H   0  0  0  0  0  0  0  0  0  0  0  0
   13.2226   -2.0080    0.0000 H   0  0  0  0  0  0  0  0  0  0  0  0
   15.4541   -0.4968    0.0000 H   0  0  0  0  0  0  0  0  0  0  0  0
   15.4541    0.3327    0.0000 H   0  0  0  0  0  0  0  0  0  0  0  0
   11.3181   -3.1273    0.0000 H   0  0  0  0  0  0  0  0  0  0  0  0
   12.1163   -3.1242    0.0000 H   0  0  0  0  0  0  0  0  0  0  0  0
   10.3027   -0.0582    0.0000 H   0  0  0  0  0  0  0  0  0  0  0  0
    9.5046   -0.0428    0.0000 H   0  0  0  0  0  0  0  0  0  0  0  0
   14.0834    1.4180    0.0000 H   0  0  0  0  0  0  0  0  0  0  0  0
   13.4634    2.0380    0.0000 H   0  0  0  0  0  0  0  0  0  0  0  0
   12.8434    1.4180    0.0000 H   0  0  0  0  0  0  0  0  0  0  0  0
   14.9129    2.2625    0.0000 H   0  0  0  0  0  0  0  0  0  0  0  0
    9.4806   -3.1562    0.0000 H   0  0  0  0  0  0  0  0  0  0  0  0
   10.2788   -3.1531    0.0000 H   0  0  0  0  0  0  0  0  0  0  0  0
   11.4490   -0.0937    0.0000 H   0  0  0  0  0  0  0  0  0  0  0  0
   10.8338    0.5311    0.0000 H   0  0  0  0  0  0  0  0  0  0  0  0
   10.2091   -0.0841    0.0000 H   0  0  0  0  0  0  0  0  0  0  0  0
    8.7421   -0.4675    0.0000 H   0  0  0  0  0  0  0  0  0  0  0  0
    8.3350   -1.1541    0.0000 H   0  0  0  0  0  0  0  0  0  0  0  0
    8.4031   -1.8246    0.0000 H   0  0  0  0  0  0  0  0  0  0  0  0
   15.7193    1.2598    0.0000 H   0  0  0  0  0  0  0  0  0  0  0  0
   16.3126    1.7921    0.0000 H   0  0  0  0  0  0  0  0  0  0  0  0
   14.5139    2.8316    0.0000 H   0  0  0  0  0  0  0  0  0  0  0  0
   13.6384    2.8790    0.0000 H   0  0  0  0  0  0  0  0  0  0  0  0
   13.5910    2.0034    0.0000 H   0  0  0  0  0  0  0  0  0  0  0  0
   15.9889    3.4496    0.0000 H   0  0  0  0  0  0  0  0  0  0  0  0
   15.3956    2.9173    0.0000 H   0  0  0  0  0  0  0  0  0  0  0  0
   17.5946    3.1640    0.0000 H   0  0  0  0  0  0  0  0  0  0  0  0
   16.6919    3.8588    0.0000 H   0  0  0  0  0  0  0  0  0  0  0  0
   17.1943    1.8778    0.0000 H   0  0  0  0  0  0  0  0  0  0  0  0
   18.0699    1.8304    0.0000 H   0  0  0  0  0  0  0  0  0  0  0  0
   18.1173    2.7059    0.0000 H   0  0  0  0  0  0  0  0  0  0  0  0
   17.0922    5.1450    0.0000 H   0  0  0  0  0  0  0  0  0  0  0  0
   16.2167    5.1925    0.0000 H   0  0  0  0  0  0  0  0  0  0  0  0
   18.4050    3.5862    0.0000 H   0  0  0  0  0  0  0  0  0  0  0  0
   18.8838    4.3208    0.0000 H   0  0  0  0  0  0  0  0  0  0  0  0
   18.1493    4.7996    0.0000 H   0  0  0  0  0  0  0  0  0  0  0  0
   16.1693    4.3169    0.0000 H   0  0  0  0  0  0  0  0  0  0  0  0
    6.3359   -3.2477    0.0000 H   0  0  0  0  0  0  0  0  0  0  0  0
    5.4766   -1.5044    0.0000 H   0  0  0  0  0  0  0  0  0  0  0  0
    3.7445   -1.4977    0.0000 H   0  0  0  0  0  0  0  0  0  0  0  0
    5.1381   -3.9331    0.0000 H   0  0  0  0  0  0  0  0  0  0  0  0
    3.7320   -4.7377    0.0000 H   0  0  0  0  0  0  0  0  0  0  0  0
    2.0000   -4.7310    0.0000 H   0  0  0  0  0  0  0  0  0  0  0  0
    2.6340   -1.1134    0.0000 H   0  0  0  0  0  0  0  0  0  0  0  0
    2.0163   -0.4910    0.0000 H   0  0  0  0  0  0  0  0  0  0  0  0
    1.3940   -1.1086    0.0000 H   0  0  0  0  0  0  0  0  0  0  0  0
 24  1  1  1  0  0  0
  1 29  1  0  0  0  0
  2 29  2  0  0  0  0
  3 39  1  0  0  0  0
  3 42  1  0  0  0  0
  4 41  1  0  0  0  0
  4 97  1  0  0  0  0
  5  6  1  0  0  0  0
  5 10  1  0  0  0  0
  5 11  1  0  0  0  0
  5 19  1  1  0  0  0
  6  7  1  0  0  0  0
  6 14  1  0  0  0  0
  6 43  1  6  0  0  0
  7  8  1  0  0  0  0
  7 15  1  0  0  0  0
  7 44  1  1  0  0  0
  8  9  1  0  0  0  0
  8 13  1  0  0  0  0
  8 45  1  6  0  0  0
  9 12  1  0  0  0  0
  9 18  1  0  0  0  0
  9 22  1  1  0  0  0
 10 16  1  0  0  0  0
 10 20  1  0  0  0  0
 10 46  1  6  0  0  0
 11 13  1  0  0  0  0
 11 47  1  0  0  0  0
 11 48  1  0  0  0  0
 12 17  1  0  0  0  0
 12 21  1  0  0  0  0
 12 49  1  6  0  0  0
 13 50  1  0  0  0  0
 13 51  1  0  0  0  0
 14 16  1  0  0  0  0
 14 52  1  0  0  0  0
 14 53  1  0  0  0  0
 15 17  1  0  0  0  0
 15 54  1  0  0  0  0
 15 55  1  0  0  0  0
 16 56  1  0  0  0  0
 16 57  1  0  0  0  0
 17 58  1  0  0  0  0
 17 59  1  0  0  0  0
 18 23  1  0  0  0  0
 18 60  1  0  0  0  0
 18 61  1  0  0  0  0
 19 62  1  0  0  0  0
 19 63  1  0  0  0  0
 19 64  1  0  0  0  0
 20 25  1  0  0  0  0
 20 26  1  6  0  0  0
 20 65  1  0  0  0  0
 21 24  1  0  0  0  0
 21 66  1  0  0  0  0
 21 67  1  0  0  0  0
 22 68  1  0  0  0  0
 22 69  1  0  0  0  0
 22 70  1  0  0  0  0
 23 24  1  0  0  0  0
 23 71  1  0  0  0  0
 23 72  1  0  0  0  0
 24 73  1  0  0  0  0
 25 27  1  0  0  0  0
 25 74  1  0  0  0  0
 25 75  1  0  0  0  0
 26 76  1  0  0  0  0
 26 77  1  0  0  0  0
 26 78  1  0  0  0  0
 27 28  1  0  0  0  0
 27 79  1  0  0  0  0
 27 80  1  0  0  0  0
 28 30  1  0  0  0  0
 28 31  1  6  0  0  0
 28 81  1  0  0  0  0
 29 32  1  0  0  0  0
 30 33  1  0  0  0  0
 30 34  1  0  0  0  0
 30 82  1  0  0  0  0
 31 83  1  0  0  0  0
 31 84  1  0  0  0  0
 31 85  1  0  0  0  0
 32 35  2  0  0  0  0
 32 92  1  0  0  0  0
 33 88  1  0  0  0  0
 33 89  1  0  0  0  0
 33 90  1  0  0  0  0
 34 86  1  0  0  0  0
 34 87  1  0  0  0  0
 34 91  1  0  0  0  0
 35 36  1  0  0  0  0
 35 93  1  0  0  0  0
 36 37  2  0  0  0  0
 36 38  1  0  0  0  0
 37 39  1  0  0  0  0
 37 94  1  0  0  0  0
 38 40  2  0  0  0  0
 38 95  1  0  0  0  0
 39 41  2  0  0  0  0
 40 41  1  0  0  0  0
 40 96  1  0  0  0  0
 42 98  1  0  0  0  0
 42 99  1  0  0  0  0
 42100  1  0  0  0  0
M  END
> <PUBCHEM_COMPOUND_CID>
13786591

> <PUBCHEM_COMPOUND_CANONICALIZED>
1

> <PUBCHEM_CACTVS_COMPLEXITY>
943

> <PUBCHEM_CACTVS_HBOND_ACCEPTOR>
4

> <PUBCHEM_CACTVS_HBOND_DONOR>
1

> <PUBCHEM_CACTVS_ROTATABLE_BOND>
10

> <PUBCHEM_CACTVS_SUBSKEYS>
AAADcfB8OAAAAAAAAAAAAAAAAAAAAYAAAAAwYMGAAAAAAGDBAAAAGgAACAAADxSgmAIyDoAABgCIAiDSCAACCAAgIAAIiAAGiMgNJiKGMRqCcCMkwBELuYeAwPAPoAABAAAAQADAAAYAACCAAQAACAAAAA==

> <PUBCHEM_IUPAC_OPENEYE_NAME>
[(3S,5S,8R,9S,10S,13R,14S,17R)-10,13-dimethyl-17-[(1R,4R)-1,4,5-trimethylhexyl]-2,3,4,5,6,7,8,9,11,12,14,15,16,17-tetradecahydro-1H-cyclopenta[a]phenanthren-3-yl] (E)-3-(4-hydroxy-3-methoxy-phenyl)prop-2-enoate

> <PUBCHEM_IUPAC_CAS_NAME>
(E)-3-(4-hydroxy-3-methoxyphenyl)-2-propenoic acid [(3S,5S,8R,9S,10S,13R,14S,17R)-17-[(2R,5R)-5,6-dimethylheptan-2-yl]-10,13-dimethyl-2,3,4,5,6,7,8,9,11,12,14,15,16,17-tetradecahydro-1H-cyclopenta[a]phenanthren-3-yl] ester

> <PUBCHEM_IUPAC_NAME>
[(3S,5S,8R,9S,10S,13R,14S,17R)-17-[(2R,5R)-5,6-dimethylheptan-2-yl]-10,13-dimethyl-2,3,4,5,6,7,8,9,11,12,14,15,16,17-tetradecahydro-1H-cyclopenta[a]phenanthren-3-yl] (E)-3-(4-hydroxy-3-methoxyphenyl)prop-2-enoate

> <PUBCHEM_IUPAC_SYSTEMATIC_NAME>
[(3S,5S,8R,9S,10S,13R,14S,17R)-17-[(2R,5R)-5,6-dimethylheptan-2-yl]-10,13-dimethyl-2,3,4,5,6,7,8,9,11,12,14,15,16,17-tetradecahydro-1H-cyclopenta[a]phenanthren-3-yl] (E)-3-(3-methoxy-4-oxidanyl-phenyl)prop-2-enoate

> <PUBCHEM_IUPAC_TRADITIONAL_NAME>
(E)-3-(4-hydroxy-3-methoxy-phenyl)acrylic acid [(3S,5S,8R,9S,10S,13R,14S,17R)-10,13-dimethyl-17-[(1R,4R)-1,4,5-trimethylhexyl]-2,3,4,5,6,7,8,9,11,12,14,15,16,17-tetradecahydro-1H-cyclopenta[a]phenanthren-3-yl] ester

> <PUBCHEM_IUPAC_INCHI>
InChI=1S/C38H58O4/c1-24(2)25(3)8-9-26(4)31-14-15-32-30-13-12-28-23-29(18-20-37(28,5)33(30)19-21-38(31,32)6)42-36(40)17-11-27-10-16-34(39)35(22-27)41-7/h10-11,16-17,22,24-26,28-33,39H,8-9,12-15,18-21,23H2,1-7H3/b17-11+/t25-,26-,28+,29+,30+,31-,32+,33+,37+,38-/m1/s1

> <PUBCHEM_IUPAC_INCHIKEY>
NLHPCZDTMWKEFC-GTKUFFLCSA-N

> <PUBCHEM_XLOGP3_AA>
11.9

> <PUBCHEM_EXACT_MASS>
578.434

> <PUBCHEM_MOLECULAR_FORMULA>
C38H58O4

> <PUBCHEM_MOLECULAR_WEIGHT>
578.878

> <PUBCHEM_OPENEYE_CAN_SMILES>
CC(C)C(C)CCC(C)C1CCC2C1(CCC3C2CCC4C3(CCC(C4)OC(=O)C=CC5=CC(=C(C=C5)O)OC)C)C

> <PUBCHEM_OPENEYE_ISO_SMILES>
C[C@H](CC[C@@H](C)C(C)C)[C@H]1CC[C@@H]2[C@@]1(CC[C@H]3[C@H]2CC[C@@H]4[C@@]3(CC[C@@H](C4)OC(=O)/C=C/C5=CC(=C(C=C5)O)OC)C)C

> <PUBCHEM_CACTVS_TPSA>
55.8

> <PUBCHEM_MONOISOTOPIC_WEIGHT>
578.434

> <PUBCHEM_TOTAL_CHARGE>
0

> <PUBCHEM_HEAVY_ATOM_COUNT>
42

> <PUBCHEM_ATOM_DEF_STEREO_COUNT>
10

> <PUBCHEM_ATOM_UDEF_STEREO_COUNT>
0

> <PUBCHEM_BOND_DEF_STEREO_COUNT>
1

> <PUBCHEM_BOND_UDEF_STEREO_COUNT>
0

> <PUBCHEM_ISOTOPIC_ATOM_COUNT>
0

> <PUBCHEM_COMPONENT_COUNT>
1

> <PUBCHEM_CACTVS_TAUTO_COUNT>
5

> <PUBCHEM_COORDINATE_TYPE>
1
5
255

> <PUBCHEM_BONDANNOTATIONS>
24  1  5
10  46  6
12  49  6
20  26  6
28  31  6
36  37  8
36  38  8
37  39  8
38  40  8
39  41  8
40  41  8
5  19  5
6  43  6
7  44  5
8  45  6
9  22  5

$$$$
