123134432
  -OEChem-12071809222D

107111  0     1  0  0  0  0  0999 V2000
    8.2737   -2.6279    0.0000 O   0  0  0  0  0  0  0  0  0  0  0  0
    7.3742    2.9380    0.0000 O   0  0  0  0  0  0  0  0  0  0  0  0
   11.9187   -1.5969    0.0000 O   0  0  0  0  0  0  0  0  0  0  0  0
    4.3029    2.3707    0.0000 O   0  0  0  0  0  0  0  0  0  0  0  0
    6.5417   -2.6279    0.0000 O   0  0  0  0  0  0  0  0  0  0  0  0
    8.2737   -4.6279    0.0000 O   0  0  0  0  0  0  0  0  0  0  0  0
    6.5417   -5.6279    0.0000 O   0  0  0  0  0  0  0  0  0  0  0  0
    4.8096   -4.6279    0.0000 O   0  0  0  0  0  0  0  0  0  0  0  0
    3.9436   -3.1279    0.0000 O   0  0  0  0  0  0  0  0  0  0  0  0
    7.3857   -0.0620    0.0000 C   0  0  1  0  0  0  0  0  0  0  0  0
    6.5178    0.4346    0.0000 C   0  0  1  0  0  0  0  0  0  0  0  0
    8.2498    0.4413    0.0000 C   0  0  1  0  0  0  0  0  0  0  0  0
    9.1618   -0.0620    0.0000 C   0  0  2  0  0  0  0  0  0  0  0  0
    6.5139    1.4346    0.0000 C   0  0  1  0  0  0  0  0  0  0  0  0
    9.1738   -1.1036    0.0000 C   0  0  1  0  0  0  0  0  0  0  0  0
    7.3737   -1.1036    0.0000 C   0  0  0  0  0  0  0  0  0  0  0  0
    8.2460    1.4413    0.0000 C   0  0  0  0  0  0  0  0  0  0  0  0
    5.5665    1.7357    0.0000 C   0  0  3  0  0  0  0  0  0  0  0  0
    7.3780    1.9380    0.0000 C   0  0  1  0  0  0  0  0  0  0  0  0
    8.2737   -1.6279    0.0000 C   0  0  2  0  0  0  0  0  0  0  0  0
    5.5727    0.1263    0.0000 C   0  0  0  0  0  0  0  0  0  0  0  0
   10.1113   -1.6497    0.0000 C   0  0  0  0  0  0  0  0  0  0  0  0
    4.9860    0.9287    0.0000 C   0  0  0  0  0  0  0  0  0  0  0  0
   10.0864    0.5056    0.0000 C   0  0  0  0  0  0  0  0  0  0  0  0
    6.7459   -0.8305    0.0000 C   0  0  0  0  0  0  0  0  0  0  0  0
    6.1794   -0.5064    0.0000 C   0  0  0  0  0  0  0  0  0  0  0  0
    9.1502    0.9379    0.0000 C   0  0  0  0  0  0  0  0  0  0  0  0
   11.0489   -1.1036    0.0000 C   0  0  2  0  0  0  0  0  0  0  0  0
   11.0363   -0.0187    0.0000 C   0  0  0  0  0  0  0  0  0  0  0  0
    5.2522    2.6850    0.0000 C   0  0  2  0  0  0  0  0  0  0  0  0
   10.6113   -2.5157    0.0000 C   0  0  0  0  0  0  0  0  0  0  0  0
    9.6113   -2.5157    0.0000 C   0  0  0  0  0  0  0  0  0  0  0  0
    4.9379    3.6344    0.0000 C   0  0  0  0  0  0  0  0  0  0  0  0
    6.2015    2.9994    0.0000 C   0  0  0  0  0  0  0  0  0  0  0  0
    7.4077   -3.1279    0.0000 C   0  0  1  0  0  0  0  0  0  0  0  0
    3.9586    3.8368    0.0000 C   0  0  0  0  0  0  0  0  0  0  0  0
    7.4077   -4.1279    0.0000 C   0  0  1  0  0  0  0  0  0  0  0  0
    6.5417   -4.6279    0.0000 C   0  0  2  0  0  0  0  0  0  0  0  0
    5.6757   -3.1279    0.0000 C   0  0  1  0  0  0  0  0  0  0  0  0
    3.6443    4.7861    0.0000 C   0  0  0  0  0  0  0  0  0  0  0  0
    5.6757   -4.1279    0.0000 C   0  0  1  0  0  0  0  0  0  0  0  0
    4.8096   -2.6279    0.0000 C   0  0  0  0  0  0  0  0  0  0  0  0
    2.6650    4.9886    0.0000 C   0  0  0  0  0  0  0  0  0  0  0  0
    2.3506    5.9379    0.0000 C   0  0  0  0  0  0  0  0  0  0  0  0
    2.0000    4.2417    0.0000 C   0  0  0  0  0  0  0  0  0  0  0  0
    8.9810    0.8748    0.0000 H   0  0  0  0  0  0  0  0  0  0  0  0
    6.4207    2.2795    0.0000 H   0  0  0  0  0  0  0  0  0  0  0  0
    9.1738   -1.9536    0.0000 H   0  0  0  0  0  0  0  0  0  0  0  0
    6.7641   -0.9904    0.0000 H   0  0  0  0  0  0  0  0  0  0  0  0
    7.1579   -1.6848    0.0000 H   0  0  0  0  0  0  0  0  0  0  0  0
    8.8570    1.3360    0.0000 H   0  0  0  0  0  0  0  0  0  0  0  0
    8.4558    2.0247    0.0000 H   0  0  0  0  0  0  0  0  0  0  0  0
    4.7263    1.8644    0.0000 H   0  0  0  0  0  0  0  0  0  0  0  0
    7.9137    2.2500    0.0000 H   0  0  0  0  0  0  0  0  0  0  0  0
    8.8113   -1.9368    0.0000 H   0  0  0  0  0  0  0  0  0  0  0  0
    5.0366   -0.1850    0.0000 H   0  0  0  0  0  0  0  0  0  0  0  0
    5.8260   -0.4397    0.0000 H   0  0  0  0  0  0  0  0  0  0  0  0
    4.5236    1.3417    0.0000 H   0  0  0  0  0  0  0  0  0  0  0  0
    4.5268    0.5122    0.0000 H   0  0  0  0  0  0  0  0  0  0  0  0
   10.4745    0.9892    0.0000 H   0  0  0  0  0  0  0  0  0  0  0  0
    9.6764    0.9707    0.0000 H   0  0  0  0  0  0  0  0  0  0  0  0
    6.2694   -0.4338    0.0000 H   0  0  0  0  0  0  0  0  0  0  0  0
    6.3492   -1.3070    0.0000 H   0  0  0  0  0  0  0  0  0  0  0  0
    7.2223   -1.2272    0.0000 H   0  0  0  0  0  0  0  0  0  0  0  0
    5.5960   -0.2966    0.0000 H   0  0  0  0  0  0  0  0  0  0  0  0
    5.9696   -1.0898    0.0000 H   0  0  0  0  0  0  0  0  0  0  0  0
    6.7628   -0.7162    0.0000 H   0  0  0  0  0  0  0  0  0  0  0  0
    9.7701    0.9451    0.0000 H   0  0  0  0  0  0  0  0  0  0  0  0
    9.1430    1.5579    0.0000 H   0  0  0  0  0  0  0  0  0  0  0  0
    8.5302    0.9307    0.0000 H   0  0  0  0  0  0  0  0  0  0  0  0
   11.5828   -0.7884    0.0000 H   0  0  0  0  0  0  0  0  0  0  0  0
   11.6484   -0.1177    0.0000 H   0  0  0  0  0  0  0  0  0  0  0  0
   11.2386    0.5674    0.0000 H   0  0  0  0  0  0  0  0  0  0  0  0
    9.0744   -2.2057    0.0000 H   0  0  0  0  0  0  0  0  0  0  0  0
    9.3013   -3.0527    0.0000 H   0  0  0  0  0  0  0  0  0  0  0  0
   10.1483   -2.8257    0.0000 H   0  0  0  0  0  0  0  0  0  0  0  0
   10.0744   -2.8257    0.0000 H   0  0  0  0  0  0  0  0  0  0  0  0
   10.9213   -3.0527    0.0000 H   0  0  0  0  0  0  0  0  0  0  0  0
   11.1483   -2.2057    0.0000 H   0  0  0  0  0  0  0  0  0  0  0  0
    7.9099    3.2500    0.0000 H   0  0  0  0  0  0  0  0  0  0  0  0
    5.5514    3.7241    0.0000 H   0  0  0  0  0  0  0  0  0  0  0  0
    4.9561    4.2541    0.0000 H   0  0  0  0  0  0  0  0  0  0  0  0
    6.3964    2.4108    0.0000 H   0  0  0  0  0  0  0  0  0  0  0  0
    6.7901    3.1942    0.0000 H   0  0  0  0  0  0  0  0  0  0  0  0
    6.0066    3.5879    0.0000 H   0  0  0  0  0  0  0  0  0  0  0  0
    7.9446   -3.4379    0.0000 H   0  0  0  0  0  0  0  0  0  0  0  0
   12.4533   -1.2828    0.0000 H   0  0  0  0  0  0  0  0  0  0  0  0
    3.8398    2.7830    0.0000 H   0  0  0  0  0  0  0  0  0  0  0  0
    3.3451    3.7471    0.0000 H   0  0  0  0  0  0  0  0  0  0  0  0
    3.9404    3.2171    0.0000 H   0  0  0  0  0  0  0  0  0  0  0  0
    7.4077   -4.7479    0.0000 H   0  0  0  0  0  0  0  0  0  0  0  0
    6.0047   -4.9379    0.0000 H   0  0  0  0  0  0  0  0  0  0  0  0
    5.6757   -2.5079    0.0000 H   0  0  0  0  0  0  0  0  0  0  0  0
    4.0565    5.2492    0.0000 H   0  0  0  0  0  0  0  0  0  0  0  0
    5.6757   -4.7479    0.0000 H   0  0  0  0  0  0  0  0  0  0  0  0
    8.2737   -5.2479    0.0000 H   0  0  0  0  0  0  0  0  0  0  0  0
    5.2082   -2.1529    0.0000 H   0  0  0  0  0  0  0  0  0  0  0  0
    4.4111   -2.1529    0.0000 H   0  0  0  0  0  0  0  0  0  0  0  0
    6.0047   -5.9379    0.0000 H   0  0  0  0  0  0  0  0  0  0  0  0
    4.8096   -5.2479    0.0000 H   0  0  0  0  0  0  0  0  0  0  0  0
    1.5369    4.6540    0.0000 H   0  0  0  0  0  0  0  0  0  0  0  0
    1.5877    3.7786    0.0000 H   0  0  0  0  0  0  0  0  0  0  0  0
    2.4631    3.8294    0.0000 H   0  0  0  0  0  0  0  0  0  0  0  0
    2.9392    6.1328    0.0000 H   0  0  0  0  0  0  0  0  0  0  0  0
    2.1558    6.5264    0.0000 H   0  0  0  0  0  0  0  0  0  0  0  0
    1.7621    5.7430    0.0000 H   0  0  0  0  0  0  0  0  0  0  0  0
    3.4067   -2.8179    0.0000 H   0  0  0  0  0  0  0  0  0  0  0  0
 20  1  1  1  0  0  0
 35  1  1  6  0  0  0
 19  2  1  6  0  0  0
  2 80  1  0  0  0  0
 28  3  1  6  0  0  0
  3 87  1  0  0  0  0
 30  4  1  6  0  0  0
  4 88  1  0  0  0  0
  5 35  1  0  0  0  0
  5 39  1  0  0  0  0
 37  6  1  6  0  0  0
  6 96  1  0  0  0  0
 38  7  1  1  0  0  0
  7 99  1  0  0  0  0
 41  8  1  6  0  0  0
  8100  1  0  0  0  0
  9 42  1  0  0  0  0
  9107  1  0  0  0  0
 10 11  1  0  0  0  0
 10 12  1  0  0  0  0
 10 16  1  0  0  0  0
 10 25  1  6  0  0  0
 11 14  1  0  0  0  0
 11 21  1  0  0  0  0
 11 26  1  1  0  0  0
 12 13  1  0  0  0  0
 12 17  1  0  0  0  0
 12 46  1  1  0  0  0
 13 15  1  0  0  0  0
 13 24  1  0  0  0  0
 13 27  1  6  0  0  0
 14 18  1  0  0  0  0
 14 19  1  0  0  0  0
 14 47  1  6  0  0  0
 15 20  1  0  0  0  0
 15 22  1  0  0  0  0
 15 48  1  1  0  0  0
 16 20  1  0  0  0  0
 16 49  1  0  0  0  0
 16 50  1  0  0  0  0
 17 19  1  0  0  0  0
 17 51  1  0  0  0  0
 17 52  1  0  0  0  0
 18 23  1  0  0  0  0
 18 30  1  0  0  0  0
 18 53  1  0  0  0  0
 19 54  1  0  0  0  0
 20 55  1  0  0  0  0
 21 23  1  0  0  0  0
 21 56  1  0  0  0  0
 21 57  1  0  0  0  0
 22 28  1  0  0  0  0
 22 31  1  0  0  0  0
 22 32  1  0  0  0  0
 23 58  1  0  0  0  0
 23 59  1  0  0  0  0
 24 29  1  0  0  0  0
 24 60  1  0  0  0  0
 24 61  1  0  0  0  0
 25 62  1  0  0  0  0
 25 63  1  0  0  0  0
 25 64  1  0  0  0  0
 26 65  1  0  0  0  0
 26 66  1  0  0  0  0
 26 67  1  0  0  0  0
 27 68  1  0  0  0  0
 27 69  1  0  0  0  0
 27 70  1  0  0  0  0
 28 29  1  0  0  0  0
 28 71  1  0  0  0  0
 29 72  1  0  0  0  0
 29 73  1  0  0  0  0
 30 33  1  0  0  0  0
 30 34  1  0  0  0  0
 31 77  1  0  0  0  0
 31 78  1  0  0  0  0
 31 79  1  0  0  0  0
 32 74  1  0  0  0  0
 32 75  1  0  0  0  0
 32 76  1  0  0  0  0
 33 36  1  0  0  0  0
 33 81  1  0  0  0  0
 33 82  1  0  0  0  0
 34 83  1  0  0  0  0
 34 84  1  0  0  0  0
 34 85  1  0  0  0  0
 35 37  1  0  0  0  0
 35 86  1  0  0  0  0
 36 40  1  0  0  0  0
 36 89  1  0  0  0  0
 36 90  1  0  0  0  0
 37 38  1  0  0  0  0
 37 91  1  0  0  0  0
 38 41  1  0  0  0  0
 38 92  1  0  0  0  0
 39 41  1  0  0  0  0
 39 42  1  1  0  0  0
 39 93  1  0  0  0  0
 40 43  2  0  0  0  0
 40 94  1  0  0  0  0
 41 95  1  0  0  0  0
 42 97  1  0  0  0  0
 42 98  1  0  0  0  0
 43 44  1  0  0  0  0
 43 45  1  0  0  0  0
 44104  1  0  0  0  0
 44105  1  0  0  0  0
 44106  1  0  0  0  0
 45101  1  0  0  0  0
 45102  1  0  0  0  0
 45103  1  0  0  0  0
M  END
> <PUBCHEM_COMPOUND_CID>
123134432

> <PUBCHEM_COMPOUND_CANONICALIZED>
1

> <PUBCHEM_CACTVS_COMPLEXITY>
1110

> <PUBCHEM_CACTVS_HBOND_ACCEPTOR>
9

> <PUBCHEM_CACTVS_HBOND_DONOR>
7

> <PUBCHEM_CACTVS_ROTATABLE_BOND>
7

> <PUBCHEM_CACTVS_SUBSKEYS>
AAADcfB8PAAAAAAAAAAAAAAAAAAAAYAAAAA0YMEAAAAAAGDAAAAAGgAACAAAD1SwgAMCCAAABgCAAiBCAAAAAAAgAAAACAAAAAgREAIAAQAiQAAFgAAPAAPA4PwPgAAAAAAAAADAAAYAADAAAQAACAAAAA==

> <PUBCHEM_IUPAC_OPENEYE_NAME>
(2S,3R,4S,5S,6R)-2-[[(3S,5R,6S,8R,9R,10R,12R,13R,14R)-3,12-dihydroxy-17-[(1S)-1-hydroxy-1,5-dimethyl-hex-4-enyl]-4,4,8,10,14-pentamethyl-2,3,5,6,7,9,11,12,13,15,16,17-dodecahydro-1H-cyclopenta[a]phenanthren-6-yl]oxy]-6-(hydroxymethyl)tetrahydropyran-3,4,5-triol

> <PUBCHEM_IUPAC_CAS_NAME>
(2S,3R,4S,5S,6R)-2-[[(3S,5R,6S,8R,9R,10R,12R,13R,14R)-3,12-dihydroxy-17-[(2S)-2-hydroxy-6-methylhept-5-en-2-yl]-4,4,8,10,14-pentamethyl-2,3,5,6,7,9,11,12,13,15,16,17-dodecahydro-1H-cyclopenta[a]phenanthren-6-yl]oxy]-6-(hydroxymethyl)oxane-3,4,5-triol

> <PUBCHEM_IUPAC_NAME>
(2S,3R,4S,5S,6R)-2-[[(3S,5R,6S,8R,9R,10R,12R,13R,14R)-3,12-dihydroxy-17-[(2S)-2-hydroxy-6-methylhept-5-en-2-yl]-4,4,8,10,14-pentamethyl-2,3,5,6,7,9,11,12,13,15,16,17-dodecahydro-1H-cyclopenta[a]phenanthren-6-yl]oxy]-6-(hydroxymethyl)oxane-3,4,5-triol

> <PUBCHEM_IUPAC_SYSTEMATIC_NAME>
(2R,3S,4S,5R,6S)-2-(hydroxymethyl)-6-[[(3S,5R,6S,8R,9R,10R,12R,13R,14R)-4,4,8,10,14-pentamethyl-17-[(2S)-6-methyl-2-oxidanyl-hept-5-en-2-yl]-3,12-bis(oxidanyl)-2,3,5,6,7,9,11,12,13,15,16,17-dodecahydro-1H-cyclopenta[a]phenanthren-6-yl]oxy]oxane-3,4,5-triol

> <PUBCHEM_IUPAC_TRADITIONAL_NAME>
(2S,3R,4S,5S,6R)-2-[[(3S,5R,6S,8R,9R,10R,12R,13R,14R)-3,12-dihydroxy-17-[(1S)-1-hydroxy-1,5-dimethyl-hex-4-enyl]-4,4,8,10,14-pentamethyl-2,3,5,6,7,9,11,12,13,15,16,17-dodecahydro-1H-cyclopenta[a]phenanthren-6-yl]oxy]-6-methylol-tetrahydropyran-3,4,5-triol

> <PUBCHEM_IUPAC_INCHI>
InChI=1S/C36H62O9/c1-19(2)10-9-13-36(8,43)20-11-15-34(6)26(20)21(38)16-24-33(5)14-12-25(39)32(3,4)30(33)22(17-35(24,34)7)44-31-29(42)28(41)27(40)23(18-37)45-31/h10,20-31,37-43H,9,11-18H2,1-8H3/t20?,21-,22+,23-,24-,25+,26+,27-,28+,29-,30+,31+,33-,34-,35-,36+/m1/s1

> <PUBCHEM_IUPAC_INCHIKEY>
RAQNTCRNSXYLAH-TXZQGQPKSA-N

> <PUBCHEM_EXACT_MASS>
638.439

> <PUBCHEM_MOLECULAR_FORMULA>
C36H62O9

> <PUBCHEM_MOLECULAR_WEIGHT>
638.883

> <PUBCHEM_OPENEYE_CAN_SMILES>
CC(=CCCC(C)(C1CCC2(C1C(CC3C2(CC(C4C3(CCC(C4(C)C)O)C)OC5C(C(C(C(O5)CO)O)O)O)C)O)C)O)C

> <PUBCHEM_OPENEYE_ISO_SMILES>
CC(=CCC[C@@](C)(C1CC[C@@]2([C@@H]1[C@@H](C[C@H]3[C@]2(C[C@@H]([C@@H]4[C@@]3(CC[C@@H](C4(C)C)O)C)O[C@@H]5[C@@H]([C@H]([C@@H]([C@H](O5)CO)O)O)O)C)O)C)O)C

> <PUBCHEM_CACTVS_TPSA>
160

> <PUBCHEM_MONOISOTOPIC_WEIGHT>
638.439

> <PUBCHEM_TOTAL_CHARGE>
0

> <PUBCHEM_HEAVY_ATOM_COUNT>
45

> <PUBCHEM_ATOM_DEF_STEREO_COUNT>
15

> <PUBCHEM_ATOM_UDEF_STEREO_COUNT>
1

> <PUBCHEM_BOND_DEF_STEREO_COUNT>
0

> <PUBCHEM_BOND_UDEF_STEREO_COUNT>
0

> <PUBCHEM_ISOTOPIC_ATOM_COUNT>
0

> <PUBCHEM_COMPONENT_COUNT>
1

> <PUBCHEM_CACTVS_TAUTO_COUNT>
1

> <PUBCHEM_COORDINATE_TYPE>
1
5
255

> <PUBCHEM_BONDANNOTATIONS>
20  1  5
35  1  6
10  25  6
11  26  5
12  46  5
13  27  6
14  47  6
15  48  5
18  53  3
19  2  6
28  3  6
39  42  5
30  4  6
37  6  6
38  7  5
41  8  6

$$$$
