101445018
  -OEChem-12071809242D

 36 37  0     1  0  0  0  0  0999 V2000
    2.8660   -0.0000    0.0000 O   0  0  0  0  0  0  0  0  0  0  0  0
    6.3301   -2.0000    0.0000 O   0  0  0  0  0  0  0  0  0  0  0  0
    4.5981   -2.0000    0.0000 N   0  0  0  0  0  0  0  0  0  0  0  0
    4.5981   -0.0000    0.0000 N   0  0  0  0  0  0  0  0  0  0  0  0
    3.7320   -1.5000    0.0000 C   0  0  1  0  0  0  0  0  0  0  0  0
    2.8660   -2.0000    0.0000 C   0  0  0  0  0  0  0  0  0  0  0  0
    5.4641   -0.5000    0.0000 C   0  0  2  0  0  0  0  0  0  0  0  0
    3.7320   -0.5000    0.0000 C   0  0  0  0  0  0  0  0  0  0  0  0
    6.3301    0.0000    0.0000 C   0  0  0  0  0  0  0  0  0  0  0  0
    5.4641   -1.5000    0.0000 C   0  0  0  0  0  0  0  0  0  0  0  0
    2.8660   -3.0000    0.0000 C   0  0  0  0  0  0  0  0  0  0  0  0
    2.0000   -1.5000    0.0000 C   0  0  0  0  0  0  0  0  0  0  0  0
    6.3301    1.0000    0.0000 C   0  0  0  0  0  0  0  0  0  0  0  0
    7.1962    1.5000    0.0000 C   0  0  0  0  0  0  0  0  0  0  0  0
    5.4641    1.5000    0.0000 C   0  0  0  0  0  0  0  0  0  0  0  0
    7.1962    2.5000    0.0000 C   0  0  0  0  0  0  0  0  0  0  0  0
    5.4641    2.5000    0.0000 C   0  0  0  0  0  0  0  0  0  0  0  0
    6.3301    3.0000    0.0000 C   0  0  0  0  0  0  0  0  0  0  0  0
    3.7320   -2.1200    0.0000 H   0  0  0  0  0  0  0  0  0  0  0  0
    2.8660   -1.3800    0.0000 H   0  0  0  0  0  0  0  0  0  0  0  0
    5.4641    0.1200    0.0000 H   0  0  0  0  0  0  0  0  0  0  0  0
    4.5981   -2.6200    0.0000 H   0  0  0  0  0  0  0  0  0  0  0  0
    6.5422   -0.5826    0.0000 H   0  0  0  0  0  0  0  0  0  0  0  0
    6.9407    0.1077    0.0000 H   0  0  0  0  0  0  0  0  0  0  0  0
    4.5981    0.6200    0.0000 H   0  0  0  0  0  0  0  0  0  0  0  0
    2.3100   -0.9631    0.0000 H   0  0  0  0  0  0  0  0  0  0  0  0
    1.4631   -1.1900    0.0000 H   0  0  0  0  0  0  0  0  0  0  0  0
    2.2460   -3.0000    0.0000 H   0  0  0  0  0  0  0  0  0  0  0  0
    2.8660   -3.6200    0.0000 H   0  0  0  0  0  0  0  0  0  0  0  0
    3.4860   -3.0000    0.0000 H   0  0  0  0  0  0  0  0  0  0  0  0
    1.6900   -2.0369    0.0000 H   0  0  0  0  0  0  0  0  0  0  0  0
    7.7331    1.1900    0.0000 H   0  0  0  0  0  0  0  0  0  0  0  0
    4.9272    1.1900    0.0000 H   0  0  0  0  0  0  0  0  0  0  0  0
    7.7331    2.8100    0.0000 H   0  0  0  0  0  0  0  0  0  0  0  0
    4.9272    2.8100    0.0000 H   0  0  0  0  0  0  0  0  0  0  0  0
    6.3301    3.6200    0.0000 H   0  0  0  0  0  0  0  0  0  0  0  0
  1  8  2  0  0  0  0
  2 10  2  0  0  0  0
  3  5  1  0  0  0  0
  3 10  1  0  0  0  0
  3 22  1  0  0  0  0
  4  7  1  0  0  0  0
  4  8  1  0  0  0  0
  4 25  1  0  0  0  0
  5  6  1  1  0  0  0
  5  8  1  0  0  0  0
  5 19  1  0  0  0  0
  6 11  1  0  0  0  0
  6 12  1  0  0  0  0
  6 20  1  0  0  0  0
  7  9  1  6  0  0  0
  7 10  1  0  0  0  0
  7 21  1  0  0  0  0
  9 13  1  0  0  0  0
  9 23  1  0  0  0  0
  9 24  1  0  0  0  0
 11 28  1  0  0  0  0
 11 29  1  0  0  0  0
 11 30  1  0  0  0  0
 12 26  1  0  0  0  0
 12 27  1  0  0  0  0
 12 31  1  0  0  0  0
 13 14  2  0  0  0  0
 13 15  1  0  0  0  0
 14 16  1  0  0  0  0
 14 32  1  0  0  0  0
 15 17  2  0  0  0  0
 15 33  1  0  0  0  0
 16 18  2  0  0  0  0
 16 34  1  0  0  0  0
 17 18  1  0  0  0  0
 17 35  1  0  0  0  0
 18 36  1  0  0  0  0
M  END
> <PUBCHEM_COMPOUND_CID>
101445018

> <PUBCHEM_COMPOUND_CANONICALIZED>
1

> <PUBCHEM_CACTVS_COMPLEXITY>
322

> <PUBCHEM_CACTVS_HBOND_ACCEPTOR>
2

> <PUBCHEM_CACTVS_HBOND_DONOR>
2

> <PUBCHEM_CACTVS_ROTATABLE_BOND>
3

> <PUBCHEM_CACTVS_SUBSKEYS>
AAADceBzMAAAAAAAAAAAAAAAAAAAAAAAAAA8QAAAAAAAAAABAAAAHgAQAAAADSjBmAQyAILAAACIAiFSEAACAAAgAAAIiIGIAIgIYDKAkTGUIAAglgCIiAcYiICOAAAAAAAAAAAAAAAAAAAAAAAAAAAAAA==

> <PUBCHEM_IUPAC_OPENEYE_NAME>
(3R,6S)-3-benzyl-6-isopropyl-piperazine-2,5-dione

> <PUBCHEM_IUPAC_CAS_NAME>
(3R,6S)-3-(phenylmethyl)-6-propan-2-ylpiperazine-2,5-dione

> <PUBCHEM_IUPAC_NAME>
(3R,6S)-3-benzyl-6-propan-2-ylpiperazine-2,5-dione

> <PUBCHEM_IUPAC_SYSTEMATIC_NAME>
(3R,6S)-3-(phenylmethyl)-6-propan-2-yl-piperazine-2,5-dione

> <PUBCHEM_IUPAC_TRADITIONAL_NAME>
(3R,6S)-3-benzyl-6-isopropyl-piperazine-2,5-quinone

> <PUBCHEM_IUPAC_INCHI>
InChI=1S/C14H18N2O2/c1-9(2)12-14(18)15-11(13(17)16-12)8-10-6-4-3-5-7-10/h3-7,9,11-12H,8H2,1-2H3,(H,15,18)(H,16,17)/t11-,12+/m1/s1

> <PUBCHEM_IUPAC_INCHIKEY>
OQQPOHUVAQPSHJ-NEPJUHHUSA-N

> <PUBCHEM_XLOGP3_AA>
2

> <PUBCHEM_EXACT_MASS>
246.137

> <PUBCHEM_MOLECULAR_FORMULA>
C14H18N2O2

> <PUBCHEM_MOLECULAR_WEIGHT>
246.31

> <PUBCHEM_OPENEYE_CAN_SMILES>
CC(C)C1C(=O)NC(C(=O)N1)CC2=CC=CC=C2

> <PUBCHEM_OPENEYE_ISO_SMILES>
CC(C)[C@H]1C(=O)N[C@@H](C(=O)N1)CC2=CC=CC=C2

> <PUBCHEM_CACTVS_TPSA>
58.2

> <PUBCHEM_MONOISOTOPIC_WEIGHT>
246.137

> <PUBCHEM_TOTAL_CHARGE>
0

> <PUBCHEM_HEAVY_ATOM_COUNT>
18

> <PUBCHEM_ATOM_DEF_STEREO_COUNT>
2

> <PUBCHEM_ATOM_UDEF_STEREO_COUNT>
0

> <PUBCHEM_BOND_DEF_STEREO_COUNT>
0

> <PUBCHEM_BOND_UDEF_STEREO_COUNT>
0

> <PUBCHEM_ISOTOPIC_ATOM_COUNT>
0

> <PUBCHEM_COMPONENT_COUNT>
1

> <PUBCHEM_CACTVS_TAUTO_COUNT>
8

> <PUBCHEM_COORDINATE_TYPE>
1
5
255

> <PUBCHEM_BONDANNOTATIONS>
13  14  8
13  15  8
14  16  8
15  17  8
16  18  8
17  18  8
5  6  5
7  9  6

$$$$
