14977366
  -OEChem-12071809342D

 34 35  0     0  0  0  0  0  0999 V2000
    8.5991    1.9050    0.0000 O   0  0  0  0  0  0  0  0  0  0  0  0
    2.5369   -2.5950    0.0000 O   0  0  0  0  0  0  0  0  0  0  0  0
    4.2690   -3.5950    0.0000 O   0  0  0  0  0  0  0  0  0  0  0  0
    4.2690    2.4050    0.0000 O   0  0  0  0  0  0  0  0  0  0  0  0
    6.0010    2.4050    0.0000 C   0  0  0  0  0  0  0  0  0  0  0  0
    4.2690   -0.5950    0.0000 C   0  0  0  0  0  0  0  0  0  0  0  0
    6.8671    1.9050    0.0000 C   0  0  0  0  0  0  0  0  0  0  0  0
    5.1350    1.9050    0.0000 C   0  0  0  0  0  0  0  0  0  0  0  0
    4.2690    0.4050    0.0000 C   0  0  0  0  0  0  0  0  0  0  0  0
    3.4030   -1.0950    0.0000 C   0  0  0  0  0  0  0  0  0  0  0  0
    7.7331    2.4050    0.0000 C   0  0  0  0  0  0  0  0  0  0  0  0
    6.0010    3.4050    0.0000 C   0  0  0  0  0  0  0  0  0  0  0  0
    5.1350   -1.0950    0.0000 C   0  0  0  0  0  0  0  0  0  0  0  0
    5.1350    0.9050    0.0000 C   0  0  0  0  0  0  0  0  0  0  0  0
    3.4030   -2.0950    0.0000 C   0  0  0  0  0  0  0  0  0  0  0  0
    7.7331    3.4050    0.0000 C   0  0  0  0  0  0  0  0  0  0  0  0
    6.8671    3.9050    0.0000 C   0  0  0  0  0  0  0  0  0  0  0  0
    4.2690   -2.5950    0.0000 C   0  0  0  0  0  0  0  0  0  0  0  0
    5.1350   -2.0950    0.0000 C   0  0  0  0  0  0  0  0  0  0  0  0
    9.4651    2.4050    0.0000 C   0  0  0  0  0  0  0  0  0  0  0  0
    6.8671    1.2850    0.0000 H   0  0  0  0  0  0  0  0  0  0  0  0
    3.7320    0.7150    0.0000 H   0  0  0  0  0  0  0  0  0  0  0  0
    2.8660   -0.7850    0.0000 H   0  0  0  0  0  0  0  0  0  0  0  0
    5.4641    3.7150    0.0000 H   0  0  0  0  0  0  0  0  0  0  0  0
    5.6720   -0.7850    0.0000 H   0  0  0  0  0  0  0  0  0  0  0  0
    5.6720    0.5950    0.0000 H   0  0  0  0  0  0  0  0  0  0  0  0
    8.2700    3.7150    0.0000 H   0  0  0  0  0  0  0  0  0  0  0  0
    6.8671    4.5250    0.0000 H   0  0  0  0  0  0  0  0  0  0  0  0
    5.6720   -2.4050    0.0000 H   0  0  0  0  0  0  0  0  0  0  0  0
    2.0000   -2.2850    0.0000 H   0  0  0  0  0  0  0  0  0  0  0  0
    9.7751    1.8681    0.0000 H   0  0  0  0  0  0  0  0  0  0  0  0
   10.0021    2.7150    0.0000 H   0  0  0  0  0  0  0  0  0  0  0  0
    9.1551    2.9419    0.0000 H   0  0  0  0  0  0  0  0  0  0  0  0
    4.8059   -3.9050    0.0000 H   0  0  0  0  0  0  0  0  0  0  0  0
  1 11  1  0  0  0  0
  1 20  1  0  0  0  0
  2 15  1  0  0  0  0
  2 30  1  0  0  0  0
  3 18  1  0  0  0  0
  3 34  1  0  0  0  0
  4  8  2  0  0  0  0
  5  7  2  0  0  0  0
  5  8  1  0  0  0  0
  5 12  1  0  0  0  0
  6  9  1  0  0  0  0
  6 10  2  0  0  0  0
  6 13  1  0  0  0  0
  7 11  1  0  0  0  0
  7 21  1  0  0  0  0
  8 14  1  0  0  0  0
  9 14  2  0  0  0  0
  9 22  1  0  0  0  0
 10 15  1  0  0  0  0
 10 23  1  0  0  0  0
 11 16  2  0  0  0  0
 12 17  2  0  0  0  0
 12 24  1  0  0  0  0
 13 19  2  0  0  0  0
 13 25  1  0  0  0  0
 14 26  1  0  0  0  0
 15 18  2  0  0  0  0
 16 17  1  0  0  0  0
 16 27  1  0  0  0  0
 17 28  1  0  0  0  0
 18 19  1  0  0  0  0
 19 29  1  0  0  0  0
 20 31  1  0  0  0  0
 20 32  1  0  0  0  0
 20 33  1  0  0  0  0
M  END
> <PUBCHEM_COMPOUND_CID>
14977366

> <PUBCHEM_COMPOUND_CANONICALIZED>
1

> <PUBCHEM_CACTVS_COMPLEXITY>
352

> <PUBCHEM_CACTVS_HBOND_ACCEPTOR>
4

> <PUBCHEM_CACTVS_HBOND_DONOR>
2

> <PUBCHEM_CACTVS_ROTATABLE_BOND>
4

> <PUBCHEM_CACTVS_SUBSKEYS>
AAADccB4OAAAAAAAAAAAAAAAAAAAAAAAAAAwYAAAAAAAAAABQAAAGgAACAAADASAmAIyBoAABgCIAqBSAAACCAAkIAAIiAEGiMgNJjKGNRqAcSEkwBEJuYeKyLCOIAABAAAAQABAAAIAAACAAAAAAAAAAA==

> <PUBCHEM_IUPAC_OPENEYE_NAME>
(E)-3-(3,4-dihydroxyphenyl)-1-(3-methoxyphenyl)prop-2-en-1-one

> <PUBCHEM_IUPAC_CAS_NAME>
(E)-3-(3,4-dihydroxyphenyl)-1-(3-methoxyphenyl)-2-propen-1-one

> <PUBCHEM_IUPAC_NAME>
(E)-3-(3,4-dihydroxyphenyl)-1-(3-methoxyphenyl)prop-2-en-1-one

> <PUBCHEM_IUPAC_SYSTEMATIC_NAME>
(E)-3-[3,4-bis(oxidanyl)phenyl]-1-(3-methoxyphenyl)prop-2-en-1-one

> <PUBCHEM_IUPAC_TRADITIONAL_NAME>
(E)-3-(3,4-dihydroxyphenyl)-1-(3-methoxyphenyl)prop-2-en-1-one

> <PUBCHEM_IUPAC_INCHI>
InChI=1S/C16H14O4/c1-20-13-4-2-3-12(10-13)14(17)7-5-11-6-8-15(18)16(19)9-11/h2-10,18-19H,1H3/b7-5+

> <PUBCHEM_IUPAC_INCHIKEY>
IXYHLIIXLGOBCH-FNORWQNLSA-N

> <PUBCHEM_XLOGP3>
3.4

> <PUBCHEM_EXACT_MASS>
270.089

> <PUBCHEM_MOLECULAR_FORMULA>
C16H14O4

> <PUBCHEM_MOLECULAR_WEIGHT>
270.284

> <PUBCHEM_OPENEYE_CAN_SMILES>
COC1=CC=CC(=C1)C(=O)C=CC2=CC(=C(C=C2)O)O

> <PUBCHEM_OPENEYE_ISO_SMILES>
COC1=CC=CC(=C1)C(=O)/C=C/C2=CC(=C(C=C2)O)O

> <PUBCHEM_CACTVS_TPSA>
66.8

> <PUBCHEM_MONOISOTOPIC_WEIGHT>
270.089

> <PUBCHEM_TOTAL_CHARGE>
0

> <PUBCHEM_HEAVY_ATOM_COUNT>
20

> <PUBCHEM_ATOM_DEF_STEREO_COUNT>
0

> <PUBCHEM_ATOM_UDEF_STEREO_COUNT>
0

> <PUBCHEM_BOND_DEF_STEREO_COUNT>
1

> <PUBCHEM_BOND_UDEF_STEREO_COUNT>
0

> <PUBCHEM_ISOTOPIC_ATOM_COUNT>
0

> <PUBCHEM_COMPONENT_COUNT>
1

> <PUBCHEM_CACTVS_TAUTO_COUNT>
16

> <PUBCHEM_COORDINATE_TYPE>
1
5
255

> <PUBCHEM_BONDANNOTATIONS>
10  15  8
11  16  8
12  17  8
13  19  8
15  18  8
16  17  8
18  19  8
5  12  8
5  7  8
6  10  8
6  13  8
7  11  8

$$$$
