92448855
  -OEChem-12071820562D

 38 38  0     1  0  0  0  0  0999 V2000
    2.8660    1.0000    0.0000 O   0  0  0  0  0  0  0  0  0  0  0  0
    6.3301   -1.0000    0.0000 O   0  0  0  0  0  0  0  0  0  0  0  0
    4.5981   -1.0000    0.0000 N   0  0  0  0  0  0  0  0  0  0  0  0
    4.5981    1.0000    0.0000 N   0  0  0  0  0  0  0  0  0  0  0  0
    3.7320   -0.5000    0.0000 C   0  0  1  0  0  0  0  0  0  0  0  0
    2.8660   -1.0000    0.0000 C   0  0  2  0  0  0  0  0  0  0  0  0
    5.4641    0.5000    0.0000 C   0  0  2  0  0  0  0  0  0  0  0  0
    6.3301    1.0000    0.0000 C   0  0  0  0  0  0  0  0  0  0  0  0
    3.7320    0.5000    0.0000 C   0  0  0  0  0  0  0  0  0  0  0  0
    6.3301    2.0000    0.0000 C   0  0  0  0  0  0  0  0  0  0  0  0
    5.4641   -0.5000    0.0000 C   0  0  0  0  0  0  0  0  0  0  0  0
    2.8660   -2.0000    0.0000 C   0  0  0  0  0  0  0  0  0  0  0  0
    2.0000   -0.5000    0.0000 C   0  0  0  0  0  0  0  0  0  0  0  0
    7.1962    2.5000    0.0000 C   0  0  0  0  0  0  0  0  0  0  0  0
    5.4641    2.5000    0.0000 C   0  0  0  0  0  0  0  0  0  0  0  0
    2.0000   -2.5000    0.0000 C   0  0  0  0  0  0  0  0  0  0  0  0
    3.7320   -1.3500    0.0000 H   0  0  0  0  0  0  0  0  0  0  0  0
    2.8660   -0.3800    0.0000 H   0  0  0  0  0  0  0  0  0  0  0  0
    5.4641    1.1200    0.0000 H   0  0  0  0  0  0  0  0  0  0  0  0
    6.5422    0.4174    0.0000 H   0  0  0  0  0  0  0  0  0  0  0  0
    6.9407    1.1077    0.0000 H   0  0  0  0  0  0  0  0  0  0  0  0
    4.5981   -1.6200    0.0000 H   0  0  0  0  0  0  0  0  0  0  0  0
    6.8671    1.6900    0.0000 H   0  0  0  0  0  0  0  0  0  0  0  0
    4.5981    1.6200    0.0000 H   0  0  0  0  0  0  0  0  0  0  0  0
    3.0781   -2.5826    0.0000 H   0  0  0  0  0  0  0  0  0  0  0  0
    3.4766   -1.8923    0.0000 H   0  0  0  0  0  0  0  0  0  0  0  0
    2.3100    0.0369    0.0000 H   0  0  0  0  0  0  0  0  0  0  0  0
    1.4631   -0.1900    0.0000 H   0  0  0  0  0  0  0  0  0  0  0  0
    1.6900   -1.0369    0.0000 H   0  0  0  0  0  0  0  0  0  0  0  0
    7.5062    1.9631    0.0000 H   0  0  0  0  0  0  0  0  0  0  0  0
    7.7331    2.8100    0.0000 H   0  0  0  0  0  0  0  0  0  0  0  0
    6.8862    3.0369    0.0000 H   0  0  0  0  0  0  0  0  0  0  0  0
    5.7741    3.0369    0.0000 H   0  0  0  0  0  0  0  0  0  0  0  0
    4.9272    2.8100    0.0000 H   0  0  0  0  0  0  0  0  0  0  0  0
    5.1541    1.9631    0.0000 H   0  0  0  0  0  0  0  0  0  0  0  0
    1.6900   -1.9631    0.0000 H   0  0  0  0  0  0  0  0  0  0  0  0
    1.4631   -2.8100    0.0000 H   0  0  0  0  0  0  0  0  0  0  0  0
    2.3100   -3.0369    0.0000 H   0  0  0  0  0  0  0  0  0  0  0  0
  1  9  2  0  0  0  0
  2 11  2  0  0  0  0
  3  5  1  0  0  0  0
  3 11  1  0  0  0  0
  3 22  1  0  0  0  0
  4  7  1  0  0  0  0
  4  9  1  0  0  0  0
  4 24  1  0  0  0  0
  5  6  1  0  0  0  0
  5  9  1  0  0  0  0
  5 17  1  6  0  0  0
  6 12  1  0  0  0  0
  6 13  1  6  0  0  0
  6 18  1  0  0  0  0
  7  8  1  6  0  0  0
  7 11  1  0  0  0  0
  7 19  1  0  0  0  0
  8 10  1  0  0  0  0
  8 20  1  0  0  0  0
  8 21  1  0  0  0  0
 10 14  1  0  0  0  0
 10 15  1  0  0  0  0
 10 23  1  0  0  0  0
 12 16  1  0  0  0  0
 12 25  1  0  0  0  0
 12 26  1  0  0  0  0
 13 27  1  0  0  0  0
 13 28  1  0  0  0  0
 13 29  1  0  0  0  0
 14 30  1  0  0  0  0
 14 31  1  0  0  0  0
 14 32  1  0  0  0  0
 15 33  1  0  0  0  0
 15 34  1  0  0  0  0
 15 35  1  0  0  0  0
 16 36  1  0  0  0  0
 16 37  1  0  0  0  0
 16 38  1  0  0  0  0
M  END
> <PUBCHEM_COMPOUND_CID>
92448855

> <PUBCHEM_COMPOUND_CANONICALIZED>
1

> <PUBCHEM_CACTVS_COMPLEXITY>
276

> <PUBCHEM_CACTVS_HBOND_ACCEPTOR>
2

> <PUBCHEM_CACTVS_HBOND_DONOR>
2

> <PUBCHEM_CACTVS_ROTATABLE_BOND>
4

> <PUBCHEM_CACTVS_SUBSKEYS>
AAADceBzMAAAAAAAAAAAAAAAAAAAAAAAAAAsAAAAAAAAAAAAAAAAHgAQAAAADSjBgAQCAALAAAAIAAEQEAAAAAAAAAAAAIGIAAAAQBIAgCAUAAAAFgCAAAAYAAAOAAAAAAAAAAAAAAAAAAAAAAAAAAAAAA==

> <PUBCHEM_IUPAC_OPENEYE_NAME>
(3R,6S)-3-isobutyl-6-[(1S)-1-methylpropyl]piperazine-2,5-dione

> <PUBCHEM_IUPAC_CAS_NAME>
(3S,6R)-3-[(2S)-butan-2-yl]-6-(2-methylpropyl)piperazine-2,5-dione

> <PUBCHEM_IUPAC_NAME>
(3S,6R)-3-[(2S)-butan-2-yl]-6-(2-methylpropyl)piperazine-2,5-dione

> <PUBCHEM_IUPAC_SYSTEMATIC_NAME>
(3S,6R)-3-[(2S)-butan-2-yl]-6-(2-methylpropyl)piperazine-2,5-dione

> <PUBCHEM_IUPAC_TRADITIONAL_NAME>
(3R,6S)-3-isobutyl-6-[(1S)-1-methylpropyl]piperazine-2,5-quinone

> <PUBCHEM_IUPAC_INCHI>
InChI=1S/C12H22N2O2/c1-5-8(4)10-12(16)13-9(6-7(2)3)11(15)14-10/h7-10H,5-6H2,1-4H3,(H,13,16)(H,14,15)/t8-,9+,10-/m0/s1

> <PUBCHEM_IUPAC_INCHIKEY>
CCMDAWLYCNFDFN-AEJSXWLSSA-N

> <PUBCHEM_XLOGP3_AA>
2.1

> <PUBCHEM_EXACT_MASS>
226.168

> <PUBCHEM_MOLECULAR_FORMULA>
C12H22N2O2

> <PUBCHEM_MOLECULAR_WEIGHT>
226.32

> <PUBCHEM_OPENEYE_CAN_SMILES>
CCC(C)C1C(=O)NC(C(=O)N1)CC(C)C

> <PUBCHEM_OPENEYE_ISO_SMILES>
CC[C@H](C)[C@H]1C(=O)N[C@@H](C(=O)N1)CC(C)C

> <PUBCHEM_CACTVS_TPSA>
58.2

> <PUBCHEM_MONOISOTOPIC_WEIGHT>
226.168

> <PUBCHEM_TOTAL_CHARGE>
0

> <PUBCHEM_HEAVY_ATOM_COUNT>
16

> <PUBCHEM_ATOM_DEF_STEREO_COUNT>
3

> <PUBCHEM_ATOM_UDEF_STEREO_COUNT>
0

> <PUBCHEM_BOND_DEF_STEREO_COUNT>
0

> <PUBCHEM_BOND_UDEF_STEREO_COUNT>
0

> <PUBCHEM_ISOTOPIC_ATOM_COUNT>
0

> <PUBCHEM_COMPONENT_COUNT>
1

> <PUBCHEM_CACTVS_TAUTO_COUNT>
4

> <PUBCHEM_COORDINATE_TYPE>
1
5
255

> <PUBCHEM_BONDANNOTATIONS>
5  17  6
6  13  6
7  8  6

$$$$
