101130268
  -OEChem-12071809292D

149155  0     1  0  0  0  0  0999 V2000
   10.3312    3.3302    0.0000 O   0  0  0  0  0  0  0  0  0  0  0  0
   14.7015   -0.2318    0.0000 O   0  0  0  0  0  0  0  0  0  0  0  0
   14.0865   -2.6899    0.0000 O   0  0  0  0  0  0  0  0  0  0  0  0
   13.0465    5.9714    0.0000 O   0  0  0  0  0  0  0  0  0  0  0  0
    8.5991    3.3302    0.0000 O   0  0  0  0  0  0  0  0  0  0  0  0
   12.7929   -3.8416    0.0000 O   0  0  0  0  0  0  0  0  0  0  0  0
   10.3312    1.3302    0.0000 O   0  0  0  0  0  0  0  0  0  0  0  0
    8.5991    0.3302    0.0000 O   0  0  0  0  0  0  0  0  0  0  0  0
   15.4164   -4.1836    0.0000 O   0  0  0  0  0  0  0  0  0  0  0  0
    6.8671    1.3302    0.0000 O   0  0  0  0  0  0  0  0  0  0  0  0
   14.7878   -6.0822    0.0000 O   0  0  0  0  0  0  0  0  0  0  0  0
   12.8292   -6.4871    0.0000 O   0  0  0  0  0  0  0  0  0  0  0  0
    6.0010    2.8302    0.0000 O   0  0  0  0  0  0  0  0  0  0  0  0
   11.1849   -5.9427    0.0000 O   0  0  0  0  0  0  0  0  0  0  0  0
    5.1350    4.3302    0.0000 O   0  0  0  0  0  0  0  0  0  0  0  0
    4.2690    1.8302    0.0000 O   0  0  0  0  0  0  0  0  0  0  0  0
    2.5369    2.8302    0.0000 O   0  0  0  0  0  0  0  0  0  0  0  0
    2.5369    4.8302    0.0000 O   0  0  0  0  0  0  0  0  0  0  0  0
    3.4030    6.3302    0.0000 O   0  0  0  0  0  0  0  0  0  0  0  0
   12.1092    1.2782    0.0000 C   0  0  1  0  0  0  0  0  0  0  0  0
   12.1054    0.2782    0.0000 C   0  0  1  0  0  0  0  0  0  0  0  0
   12.9772    1.7749    0.0000 C   0  0  1  0  0  0  0  0  0  0  0  0
   12.9973    2.8163    0.0000 C   0  0  2  0  0  0  0  0  0  0  0  0
   12.9695   -0.2251    0.0000 C   0  0  1  0  0  0  0  0  0  0  0  0
   12.1013    3.3475    0.0000 C   0  0  1  0  0  0  0  0  0  0  0  0
   11.2012    1.7886    0.0000 C   0  0  0  0  0  0  0  0  0  0  0  0
   13.8413    1.2715    0.0000 C   0  0  0  0  0  0  0  0  0  0  0  0
   12.7565   -1.1961    0.0000 C   0  0  2  0  0  0  0  0  0  0  0  0
   13.8374    0.2715    0.0000 C   0  0  1  0  0  0  0  0  0  0  0  0
   11.3658   -0.3860    0.0000 C   0  0  0  0  0  0  0  0  0  0  0  0
   11.1972    2.8302    0.0000 C   0  0  2  0  0  0  0  0  0  0  0  0
   12.0971    4.4325    0.0000 C   0  0  0  0  0  0  0  0  0  0  0  0
   11.7674   -1.2954    0.0000 C   0  0  0  0  0  0  0  0  0  0  0  0
   13.9512    3.3333    0.0000 C   0  0  0  0  0  0  0  0  0  0  0  0
   11.2413    0.7816    0.0000 C   0  0  0  0  0  0  0  0  0  0  0  0
   11.1199    0.1084    0.0000 C   0  0  0  0  0  0  0  0  0  0  0  0
   13.8575    2.3063    0.0000 C   0  0  0  0  0  0  0  0  0  0  0  0
   13.0388    4.9714    0.0000 C   0  0  2  0  0  0  0  0  0  0  0  0
   13.4215   -1.9430    0.0000 C   0  0  2  0  0  0  0  0  0  0  0  0
   13.9721    4.4180    0.0000 C   0  0  0  0  0  0  0  0  0  0  0  0
   11.5971    5.2985    0.0000 C   0  0  0  0  0  0  0  0  0  0  0  0
   11.0971    4.4325    0.0000 C   0  0  0  0  0  0  0  0  0  0  0  0
   12.6746   -2.6080    0.0000 C   0  0  0  0  0  0  0  0  0  0  0  0
   14.1684   -1.2780    0.0000 C   0  0  0  0  0  0  0  0  0  0  0  0
    9.4651    2.8302    0.0000 C   0  0  2  0  0  0  0  0  0  0  0  0
   11.7253   -2.2936    0.0000 C   0  0  0  0  0  0  0  0  0  0  0  0
   13.7722   -3.6392    0.0000 C   0  0  2  0  0  0  0  0  0  0  0  0
    9.4651    1.8302    0.0000 C   0  0  1  0  0  0  0  0  0  0  0  0
    8.5991    1.3302    0.0000 C   0  0  2  0  0  0  0  0  0  0  0  0
   14.4371   -4.3860    0.0000 C   0  0  1  0  0  0  0  0  0  0  0  0
    7.7331    2.8302    0.0000 C   0  0  1  0  0  0  0  0  0  0  0  0
   10.9784   -2.9586    0.0000 C   0  0  0  0  0  0  0  0  0  0  0  0
    7.7331    1.8302    0.0000 C   0  0  1  0  0  0  0  0  0  0  0  0
   14.1228   -5.3354    0.0000 C   0  0  2  0  0  0  0  0  0  0  0  0
   12.4785   -4.7909    0.0000 C   0  0  1  0  0  0  0  0  0  0  0  0
   13.1435   -5.5378    0.0000 C   0  0  1  0  0  0  0  0  0  0  0  0
    6.8671    3.3302    0.0000 C   0  0  0  0  0  0  0  0  0  0  0  0
   11.1809   -3.9379    0.0000 C   0  0  0  0  0  0  0  0  0  0  0  0
   11.4992   -4.9934    0.0000 C   0  0  0  0  0  0  0  0  0  0  0  0
   12.1302   -4.2522    0.0000 C   0  0  0  0  0  0  0  0  0  0  0  0
   10.4340   -4.6029    0.0000 C   0  0  0  0  0  0  0  0  0  0  0  0
    5.1350    3.3302    0.0000 C   0  0  1  0  0  0  0  0  0  0  0  0
    4.2690    2.8302    0.0000 C   0  0  1  0  0  0  0  0  0  0  0  0
    3.4030    3.3302    0.0000 C   0  0  2  0  0  0  0  0  0  0  0  0
    4.2690    4.8302    0.0000 C   0  0  1  0  0  0  0  0  0  0  0  0
    3.4030    4.3302    0.0000 C   0  0  1  0  0  0  0  0  0  0  0  0
    4.2690    5.8302    0.0000 C   0  0  0  0  0  0  0  0  0  0  0  0
   13.7182    2.1913    0.0000 H   0  0  0  0  0  0  0  0  0  0  0  0
   13.6546   -0.7283    0.0000 H   0  0  0  0  0  0  0  0  0  0  0  0
   11.3651    3.7725    0.0000 H   0  0  0  0  0  0  0  0  0  0  0  0
   10.5899    1.8923    0.0000 H   0  0  0  0  0  0  0  0  0  0  0  0
   10.9944    1.2041    0.0000 H   0  0  0  0  0  0  0  0  0  0  0  0
   14.4514    1.1615    0.0000 H   0  0  0  0  0  0  0  0  0  0  0  0
   14.0556    1.8533    0.0000 H   0  0  0  0  0  0  0  0  0  0  0  0
   12.4478   -1.9881    0.0000 H   0  0  0  0  0  0  0  0  0  0  0  0
   13.8350   -0.3485    0.0000 H   0  0  0  0  0  0  0  0  0  0  0  0
   11.0023    0.1162    0.0000 H   0  0  0  0  0  0  0  0  0  0  0  0
   10.8281   -0.6947    0.0000 H   0  0  0  0  0  0  0  0  0  0  0  0
   11.1984    3.4502    0.0000 H   0  0  0  0  0  0  0  0  0  0  0  0
   11.1771   -1.4848    0.0000 H   0  0  0  0  0  0  0  0  0  0  0  0
   11.8938   -1.9023    0.0000 H   0  0  0  0  0  0  0  0  0  0  0  0
   14.1490    2.7456    0.0000 H   0  0  0  0  0  0  0  0  0  0  0  0
   14.5640    3.4276    0.0000 H   0  0  0  0  0  0  0  0  0  0  0  0
   10.9334    1.3197    0.0000 H   0  0  0  0  0  0  0  0  0  0  0  0
   10.7032    0.4736    0.0000 H   0  0  0  0  0  0  0  0  0  0  0  0
   11.5492    0.2434    0.0000 H   0  0  0  0  0  0  0  0  0  0  0  0
   11.0146    0.7194    0.0000 H   0  0  0  0  0  0  0  0  0  0  0  0
   10.5089    0.0031    0.0000 H   0  0  0  0  0  0  0  0  0  0  0  0
   11.2252   -0.5026    0.0000 H   0  0  0  0  0  0  0  0  0  0  0  0
   13.5413    1.7730    0.0000 H   0  0  0  0  0  0  0  0  0  0  0  0
   14.3908    1.9901    0.0000 H   0  0  0  0  0  0  0  0  0  0  0  0
   14.1736    2.8396    0.0000 H   0  0  0  0  0  0  0  0  0  0  0  0
   12.5037    5.2845    0.0000 H   0  0  0  0  0  0  0  0  0  0  0  0
   14.5808    4.3002    0.0000 H   0  0  0  0  0  0  0  0  0  0  0  0
   14.1924    4.9976    0.0000 H   0  0  0  0  0  0  0  0  0  0  0  0
   11.0971    5.0525    0.0000 H   0  0  0  0  0  0  0  0  0  0  0  0
   12.1340    5.6085    0.0000 H   0  0  0  0  0  0  0  0  0  0  0  0
   11.2871    5.8355    0.0000 H   0  0  0  0  0  0  0  0  0  0  0  0
   10.4771    4.4325    0.0000 H   0  0  0  0  0  0  0  0  0  0  0  0
   11.0971    3.8125    0.0000 H   0  0  0  0  0  0  0  0  0  0  0  0
   11.0602    4.9885    0.0000 H   0  0  0  0  0  0  0  0  0  0  0  0
   15.2396    0.0761    0.0000 H   0  0  0  0  0  0  0  0  0  0  0  0
   12.3805   -3.1538    0.0000 H   0  0  0  0  0  0  0  0  0  0  0  0
   13.1611   -2.9924    0.0000 H   0  0  0  0  0  0  0  0  0  0  0  0
   14.5807   -1.7411    0.0000 H   0  0  0  0  0  0  0  0  0  0  0  0
   14.6314   -0.8657    0.0000 H   0  0  0  0  0  0  0  0  0  0  0  0
   13.7561   -0.8150    0.0000 H   0  0  0  0  0  0  0  0  0  0  0  0
   10.0021    2.5202    0.0000 H   0  0  0  0  0  0  0  0  0  0  0  0
   13.5858    6.2772    0.0000 H   0  0  0  0  0  0  0  0  0  0  0  0
   12.0194   -1.7478    0.0000 H   0  0  0  0  0  0  0  0  0  0  0  0
   11.2389   -1.9092    0.0000 H   0  0  0  0  0  0  0  0  0  0  0  0
   13.3599   -3.1761    0.0000 H   0  0  0  0  0  0  0  0  0  0  0  0
    9.4651    1.2102    0.0000 H   0  0  0  0  0  0  0  0  0  0  0  0
    8.0622    1.0202    0.0000 H   0  0  0  0  0  0  0  0  0  0  0  0
   14.8494   -4.8491    0.0000 H   0  0  0  0  0  0  0  0  0  0  0  0
    7.7331    3.4502    0.0000 H   0  0  0  0  0  0  0  0  0  0  0  0
   10.3899   -2.7637    0.0000 H   0  0  0  0  0  0  0  0  0  0  0  0
    7.1962    2.1402    0.0000 H   0  0  0  0  0  0  0  0  0  0  0  0
   13.9279   -5.9239    0.0000 H   0  0  0  0  0  0  0  0  0  0  0  0
   10.3312    0.7102    0.0000 H   0  0  0  0  0  0  0  0  0  0  0  0
   12.0663   -4.3279    0.0000 H   0  0  0  0  0  0  0  0  0  0  0  0
   12.5363   -5.6633    0.0000 H   0  0  0  0  0  0  0  0  0  0  0  0
    7.2656    3.8051    0.0000 H   0  0  0  0  0  0  0  0  0  0  0  0
    6.4685    3.8051    0.0000 H   0  0  0  0  0  0  0  0  0  0  0  0
    8.0622    0.0202    0.0000 H   0  0  0  0  0  0  0  0  0  0  0  0
   15.8287   -4.6467    0.0000 H   0  0  0  0  0  0  0  0  0  0  0  0
    6.8671    0.7102    0.0000 H   0  0  0  0  0  0  0  0  0  0  0  0
   11.4811   -4.3736    0.0000 H   0  0  0  0  0  0  0  0  0  0  0  0
   10.8858   -4.9037    0.0000 H   0  0  0  0  0  0  0  0  0  0  0  0
   14.5929   -6.6708    0.0000 H   0  0  0  0  0  0  0  0  0  0  0  0
   11.9353   -4.8408    0.0000 H   0  0  0  0  0  0  0  0  0  0  0  0
   10.0217   -4.1398    0.0000 H   0  0  0  0  0  0  0  0  0  0  0  0
    9.9710   -5.0152    0.0000 H   0  0  0  0  0  0  0  0  0  0  0  0
   10.8463   -5.0659    0.0000 H   0  0  0  0  0  0  0  0  0  0  0  0
   12.7188   -4.4471    0.0000 H   0  0  0  0  0  0  0  0  0  0  0  0
   12.3251   -3.6636    0.0000 H   0  0  0  0  0  0  0  0  0  0  0  0
   13.2415   -6.9502    0.0000 H   0  0  0  0  0  0  0  0  0  0  0  0
    5.1350    2.7102    0.0000 H   0  0  0  0  0  0  0  0  0  0  0  0
   10.5778   -6.0682    0.0000 H   0  0  0  0  0  0  0  0  0  0  0  0
    3.7320    2.5202    0.0000 H   0  0  0  0  0  0  0  0  0  0  0  0
    2.8660    3.6402    0.0000 H   0  0  0  0  0  0  0  0  0  0  0  0
    4.8059    5.1402    0.0000 H   0  0  0  0  0  0  0  0  0  0  0  0
    3.4030    4.9502    0.0000 H   0  0  0  0  0  0  0  0  0  0  0  0
    3.7320    1.5202    0.0000 H   0  0  0  0  0  0  0  0  0  0  0  0
    4.8796    5.7225    0.0000 H   0  0  0  0  0  0  0  0  0  0  0  0
    4.4810    6.4128    0.0000 H   0  0  0  0  0  0  0  0  0  0  0  0
    2.0000    3.1402    0.0000 H   0  0  0  0  0  0  0  0  0  0  0  0
    2.0000    4.5202    0.0000 H   0  0  0  0  0  0  0  0  0  0  0  0
    3.4030    6.9502    0.0000 H   0  0  0  0  0  0  0  0  0  0  0  0
 31  1  1  6  0  0  0
 45  1  1  1  0  0  0
 29  2  1  1  0  0  0
  2102  1  0  0  0  0
 39  3  1  1  0  0  0
 47  3  1  1  0  0  0
 38  4  1  1  0  0  0
  4109  1  0  0  0  0
  5 45  1  0  0  0  0
  5 51  1  0  0  0  0
  6 47  1  0  0  0  0
  6 55  1  0  0  0  0
 48  7  1  6  0  0  0
  7120  1  0  0  0  0
 49  8  1  1  0  0  0
  8125  1  0  0  0  0
 50  9  1  6  0  0  0
  9126  1  0  0  0  0
 53 10  1  6  0  0  0
 10127  1  0  0  0  0
 54 11  1  1  0  0  0
 11130  1  0  0  0  0
 56 12  1  6  0  0  0
 12137  1  0  0  0  0
 13 57  1  0  0  0  0
 62 13  1  6  0  0  0
 14 59  1  0  0  0  0
 14139  1  0  0  0  0
 15 62  1  0  0  0  0
 15 65  1  0  0  0  0
 63 16  1  6  0  0  0
 16144  1  0  0  0  0
 64 17  1  1  0  0  0
 17147  1  0  0  0  0
 66 18  1  6  0  0  0
 18148  1  0  0  0  0
 19 67  1  0  0  0  0
 19149  1  0  0  0  0
 20 21  1  0  0  0  0
 20 22  1  0  0  0  0
 20 26  1  0  0  0  0
 20 35  1  1  0  0  0
 21 24  1  0  0  0  0
 21 30  1  0  0  0  0
 21 36  1  6  0  0  0
 22 23  1  0  0  0  0
 22 27  1  0  0  0  0
 22 68  1  6  0  0  0
 23 25  1  0  0  0  0
 23 34  1  0  0  0  0
 23 37  1  1  0  0  0
 24 28  1  0  0  0  0
 24 29  1  0  0  0  0
 24 69  1  1  0  0  0
 25 31  1  0  0  0  0
 25 32  1  0  0  0  0
 25 70  1  6  0  0  0
 26 31  1  0  0  0  0
 26 71  1  0  0  0  0
 26 72  1  0  0  0  0
 27 29  1  0  0  0  0
 27 73  1  0  0  0  0
 27 74  1  0  0  0  0
 28 33  1  0  0  0  0
 28 39  1  0  0  0  0
 28 75  1  6  0  0  0
 29 76  1  0  0  0  0
 30 33  1  0  0  0  0
 30 77  1  0  0  0  0
 30 78  1  0  0  0  0
 31 79  1  0  0  0  0
 32 38  1  0  0  0  0
 32 41  1  0  0  0  0
 32 42  1  0  0  0  0
 33 80  1  0  0  0  0
 33 81  1  0  0  0  0
 34 40  1  0  0  0  0
 34 82  1  0  0  0  0
 34 83  1  0  0  0  0
 35 84  1  0  0  0  0
 35 85  1  0  0  0  0
 35 86  1  0  0  0  0
 36 87  1  0  0  0  0
 36 88  1  0  0  0  0
 36 89  1  0  0  0  0
 37 90  1  0  0  0  0
 37 91  1  0  0  0  0
 37 92  1  0  0  0  0
 38 40  1  0  0  0  0
 38 93  1  0  0  0  0
 39 43  1  0  0  0  0
 39 44  1  0  0  0  0
 40 94  1  0  0  0  0
 40 95  1  0  0  0  0
 41 97  1  0  0  0  0
 41 98  1  0  0  0  0
 41101  1  0  0  0  0
 42 96  1  0  0  0  0
 42 99  1  0  0  0  0
 42100  1  0  0  0  0
 43 46  1  0  0  0  0
 43103  1  0  0  0  0
 43104  1  0  0  0  0
 44105  1  0  0  0  0
 44106  1  0  0  0  0
 44107  1  0  0  0  0
 45 48  1  0  0  0  0
 45108  1  0  0  0  0
 46 52  1  0  0  0  0
 46110  1  0  0  0  0
 46111  1  0  0  0  0
 47 50  1  0  0  0  0
 47112  1  0  0  0  0
 48 49  1  0  0  0  0
 48113  1  0  0  0  0
 49 53  1  0  0  0  0
 49114  1  0  0  0  0
 50 54  1  0  0  0  0
 50115  1  0  0  0  0
 51 53  1  0  0  0  0
 51 57  1  1  0  0  0
 51116  1  0  0  0  0
 52 58  2  0  0  0  0
 52117  1  0  0  0  0
 53118  1  0  0  0  0
 54 56  1  0  0  0  0
 54119  1  0  0  0  0
 55 56  1  0  0  0  0
 55 59  1  1  0  0  0
 55121  1  0  0  0  0
 56122  1  0  0  0  0
 57123  1  0  0  0  0
 57124  1  0  0  0  0
 58 60  1  0  0  0  0
 58 61  1  0  0  0  0
 59128  1  0  0  0  0
 59129  1  0  0  0  0
 60131  1  0  0  0  0
 60135  1  0  0  0  0
 60136  1  0  0  0  0
 61132  1  0  0  0  0
 61133  1  0  0  0  0
 61134  1  0  0  0  0
 62 63  1  0  0  0  0
 62138  1  0  0  0  0
 63 64  1  0  0  0  0
 63140  1  0  0  0  0
 64 66  1  0  0  0  0
 64141  1  0  0  0  0
 65 66  1  0  0  0  0
 65 67  1  1  0  0  0
 65142  1  0  0  0  0
 66143  1  0  0  0  0
 67145  1  0  0  0  0
 67146  1  0  0  0  0
M  END
> <PUBCHEM_COMPOUND_CID>
101130268

> <PUBCHEM_COMPOUND_CANONICALIZED>
1

> <PUBCHEM_CACTVS_COMPLEXITY>
1720

> <PUBCHEM_CACTVS_HBOND_ACCEPTOR>
19

> <PUBCHEM_CACTVS_HBOND_DONOR>
13

> <PUBCHEM_CACTVS_ROTATABLE_BOND>
13

> <PUBCHEM_CACTVS_SUBSKEYS>
AAADcfB8PgAAAAAAAAAAAAAAAAAAAYAAAAA0aNECAAAAAGDAAAAAGgAACAAAD1SwgAMCCAAABgCAAiBCAAAAAAAgAAAACAAAAAgREAIAAQAiQAAFgAAPAAPA4PwPgAAAAAAAAADAAAYAADAAAQAACAAAAA==

> <PUBCHEM_IUPAC_OPENEYE_NAME>
(2S,3R,4S,5S,6R)-2-[[(2R,3S,4S,5R,6R)-6-[[(3S,5R,6S,8R,9R,10R,12R,13R,14R,17S)-17-[(1S)-1,5-dimethyl-1-[(2S,3R,4S,5S,6R)-3,4,5-trihydroxy-6-(hydroxymethyl)tetrahydropyran-2-yl]oxy-hex-4-enyl]-3,12-dihydroxy-4,4,8,10,14-pentamethyl-2,3,5,6,7,9,11,12,13,15,16,17-dodecahydro-1H-cyclopenta[a]phenanthren-6-yl]oxy]-3,4,5-trihydroxy-tetrahydropyran-2-yl]methoxy]-6-(hydroxymethyl)tetrahydropyran-3,4,5-triol

> <PUBCHEM_IUPAC_CAS_NAME>
(2S,3R,4S,5S,6R)-2-[[(2R,3S,4S,5R,6R)-6-[[(3S,5R,6S,8R,9R,10R,12R,13R,14R,17S)-3,12-dihydroxy-4,4,8,10,14-pentamethyl-17-[(2S)-6-methyl-2-[[(2S,3R,4S,5S,6R)-3,4,5-trihydroxy-6-(hydroxymethyl)-2-oxanyl]oxy]hept-5-en-2-yl]-2,3,5,6,7,9,11,12,13,15,16,17-dodecahydro-1H-cyclopenta[a]phenanthren-6-yl]oxy]-3,4,5-trihydroxy-2-oxanyl]methoxy]-6-(hydroxymethyl)oxane-3,4,5-triol

> <PUBCHEM_IUPAC_NAME>
(2S,3R,4S,5S,6R)-2-[[(2R,3S,4S,5R,6R)-6-[[(3S,5R,6S,8R,9R,10R,12R,13R,14R,17S)-3,12-dihydroxy-4,4,8,10,14-pentamethyl-17-[(2S)-6-methyl-2-[(2S,3R,4S,5S,6R)-3,4,5-trihydroxy-6-(hydroxymethyl)oxan-2-yl]oxyhept-5-en-2-yl]-2,3,5,6,7,9,11,12,13,15,16,17-dodecahydro-1H-cyclopenta[a]phenanthren-6-yl]oxy]-3,4,5-trihydroxyoxan-2-yl]methoxy]-6-(hydroxymethyl)oxane-3,4,5-triol

> <PUBCHEM_IUPAC_SYSTEMATIC_NAME>
(2R,3S,4S,5R,6S)-2-(hydroxymethyl)-6-[[(2R,3S,4S,5R,6R)-6-[[(3S,5R,6S,8R,9R,10R,12R,13R,14R,17S)-17-[(2S)-2-[(2S,3R,4S,5S,6R)-6-(hydroxymethyl)-3,4,5-tris(oxidanyl)oxan-2-yl]oxy-6-methyl-hept-5-en-2-yl]-4,4,8,10,14-pentamethyl-3,12-bis(oxidanyl)-2,3,5,6,7,9,11,12,13,15,16,17-dodecahydro-1H-cyclopenta[a]phenanthren-6-yl]oxy]-3,4,5-tris(oxidanyl)oxan-2-yl]methoxy]oxane-3,4,5-triol

> <PUBCHEM_IUPAC_TRADITIONAL_NAME>
(2S,3R,4S,5S,6R)-2-[[(2R,3S,4S,5R,6R)-6-[[(3S,5R,6S,8R,9R,10R,12R,13R,14R,17S)-17-[(1S)-1,5-dimethyl-1-[(2S,3R,4S,5S,6R)-3,4,5-trihydroxy-6-methylol-tetrahydropyran-2-yl]oxy-hex-4-enyl]-3,12-dihydroxy-4,4,8,10,14-pentamethyl-2,3,5,6,7,9,11,12,13,15,16,17-dodecahydro-1H-cyclopenta[a]phenanthren-6-yl]oxy]-3,4,5-trihydroxy-tetrahydropyran-2-yl]methoxy]-6-methylol-tetrahydropyran-3,4,5-triol

> <PUBCHEM_IUPAC_INCHI>
InChI=1S/C48H82O19/c1-21(2)10-9-13-48(8,67-43-39(61)35(57)32(54)26(19-50)65-43)22-11-15-46(6)30(22)23(51)16-28-45(5)14-12-29(52)44(3,4)40(45)24(17-47(28,46)7)63-42-38(60)36(58)33(55)27(66-42)20-62-41-37(59)34(56)31(53)25(18-49)64-41/h10,22-43,49-61H,9,11-20H2,1-8H3/t22-,23+,24-,25+,26+,27+,28+,29-,30-,31+,32+,33+,34-,35-,36-,37+,38+,39+,40-,41-,42+,43-,45+,46+,47+,48-/m0/s1

> <PUBCHEM_IUPAC_INCHIKEY>
SXNNDEIXKBANEP-JODPPCSYSA-N

> <PUBCHEM_XLOGP3_AA>
0.5

> <PUBCHEM_EXACT_MASS>
962.545

> <PUBCHEM_MOLECULAR_FORMULA>
C48H82O19

> <PUBCHEM_MOLECULAR_WEIGHT>
963.165

> <PUBCHEM_OPENEYE_CAN_SMILES>
CC(=CCCC(C)(C1CCC2(C1C(CC3C2(CC(C4C3(CCC(C4(C)C)O)C)OC5C(C(C(C(O5)COC6C(C(C(C(O6)CO)O)O)O)O)O)O)C)O)C)OC7C(C(C(C(O7)CO)O)O)O)C

> <PUBCHEM_OPENEYE_ISO_SMILES>
CC(=CCC[C@@](C)([C@H]1CC[C@@]2([C@@H]1[C@@H](C[C@H]3[C@]2(C[C@@H]([C@@H]4[C@@]3(CC[C@@H](C4(C)C)O)C)O[C@H]5[C@@H]([C@H]([C@@H]([C@H](O5)CO[C@@H]6[C@@H]([C@H]([C@@H]([C@H](O6)CO)O)O)O)O)O)O)C)O)C)O[C@H]7[C@@H]([C@H]([C@@H]([C@H](O7)CO)O)O)O)C

> <PUBCHEM_CACTVS_TPSA>
318

> <PUBCHEM_MONOISOTOPIC_WEIGHT>
962.545

> <PUBCHEM_TOTAL_CHARGE>
0

> <PUBCHEM_HEAVY_ATOM_COUNT>
67

> <PUBCHEM_ATOM_DEF_STEREO_COUNT>
26

> <PUBCHEM_ATOM_UDEF_STEREO_COUNT>
0

> <PUBCHEM_BOND_DEF_STEREO_COUNT>
0

> <PUBCHEM_BOND_UDEF_STEREO_COUNT>
0

> <PUBCHEM_ISOTOPIC_ATOM_COUNT>
0

> <PUBCHEM_COMPONENT_COUNT>
1

> <PUBCHEM_CACTVS_TAUTO_COUNT>
1

> <PUBCHEM_COORDINATE_TYPE>
1
5
255

> <PUBCHEM_BONDANNOTATIONS>
31  1  6
45  1  5
53  10  6
54  11  5
56  12  6
62  13  6
63  16  6
64  17  5
66  18  6
29  2  5
20  35  5
21  36  6
22  68  6
23  37  5
24  69  5
25  70  6
28  75  6
39  3  5
47  3  5
38  4  5
51  57  5
55  59  5
65  67  5
48  7  6
49  8  5
50  9  6

$$$$
