5316944
  -OEChem-12071809252D

  9  9  0     0  0  0  0  0  0999 V2000
    2.8090   -0.7694    0.0000 S   0  0  0  0  0  0  0  0  0  0  0  0
    3.3090    0.7694    0.0000 S   0  0  0  0  0  0  0  0  0  0  0  0
    3.6180   -0.1816    0.0000 C   0  0  0  0  0  0  0  0  0  0  0  0
    2.0000   -0.1816    0.0000 C   0  0  0  0  0  0  0  0  0  0  0  0
    2.3090    0.7694    0.0000 C   0  0  0  0  0  0  0  0  0  0  0  0
    3.9280   -0.7186    0.0000 H   0  0  0  0  0  0  0  0  0  0  0  0
    4.1844    0.0705    0.0000 H   0  0  0  0  0  0  0  0  0  0  0  0
    1.4103   -0.3732    0.0000 H   0  0  0  0  0  0  0  0  0  0  0  0
    1.9446    1.2710    0.0000 H   0  0  0  0  0  0  0  0  0  0  0  0
  1  3  1  0  0  0  0
  1  4  1  0  0  0  0
  2  3  1  0  0  0  0
  2  5  1  0  0  0  0
  3  6  1  0  0  0  0
  3  7  1  0  0  0  0
  4  5  2  0  0  0  0
  4  8  1  0  0  0  0
  5  9  1  0  0  0  0
M  END
> <PUBCHEM_COMPOUND_CID>
5316944

> <PUBCHEM_COMPOUND_CANONICALIZED>
1

> <PUBCHEM_CACTVS_COMPLEXITY>
42.9

> <PUBCHEM_CACTVS_HBOND_ACCEPTOR>
2

> <PUBCHEM_CACTVS_HBOND_DONOR>
0

> <PUBCHEM_CACTVS_ROTATABLE_BOND>
0

> <PUBCHEM_CACTVS_SUBSKEYS>
AAADcYBAAABgAAAAAAAAAAAAAAAAAQAAAAAAAAAAAAAAAAAAAAAAGAQAAAAAAACEQACAAAAAAAiAAAACAAAAAQAAAAAIAAAAAAAAAAAAAAAAAAAAAAAAAAAAAAAAAAAAAAAAAAAAAAAAAAAAAAAAAAAAAA==

> <PUBCHEM_IUPAC_OPENEYE_NAME>
1,3-dithiole

> <PUBCHEM_IUPAC_CAS_NAME>
1,3-dithiole

> <PUBCHEM_IUPAC_NAME>
1,3-dithiole

> <PUBCHEM_IUPAC_SYSTEMATIC_NAME>
1,3-dithiole

> <PUBCHEM_IUPAC_TRADITIONAL_NAME>
1,3-dithiole

> <PUBCHEM_IUPAC_INCHI>
InChI=1S/C3H4S2/c1-2-5-3-4-1/h1-2H,3H2

> <PUBCHEM_IUPAC_INCHIKEY>
IVJFXSLMUSQZMC-UHFFFAOYSA-N

> <PUBCHEM_XLOGP3_AA>
1.4

> <PUBCHEM_EXACT_MASS>
103.975

> <PUBCHEM_MOLECULAR_FORMULA>
C3H4S2

> <PUBCHEM_MOLECULAR_WEIGHT>
104.185

> <PUBCHEM_OPENEYE_CAN_SMILES>
C1SC=CS1

> <PUBCHEM_OPENEYE_ISO_SMILES>
C1SC=CS1

> <PUBCHEM_CACTVS_TPSA>
50.6

> <PUBCHEM_MONOISOTOPIC_WEIGHT>
103.975

> <PUBCHEM_TOTAL_CHARGE>
0

> <PUBCHEM_HEAVY_ATOM_COUNT>
5

> <PUBCHEM_ATOM_DEF_STEREO_COUNT>
0

> <PUBCHEM_ATOM_UDEF_STEREO_COUNT>
0

> <PUBCHEM_BOND_DEF_STEREO_COUNT>
0

> <PUBCHEM_BOND_UDEF_STEREO_COUNT>
0

> <PUBCHEM_ISOTOPIC_ATOM_COUNT>
0

> <PUBCHEM_COMPONENT_COUNT>
1

> <PUBCHEM_CACTVS_TAUTO_COUNT>
1

> <PUBCHEM_COORDINATE_TYPE>
1
5
255

$$$$
