12086127
  -OEChem-12071809232D

 35 35  0     1  0  0  0  0  0999 V2000
    2.8660    1.2500    0.0000 O   0  0  0  0  0  0  0  0  0  0  0  0
    6.3301   -0.7500    0.0000 O   0  0  0  0  0  0  0  0  0  0  0  0
    4.5981   -0.7500    0.0000 N   0  0  0  0  0  0  0  0  0  0  0  0
    4.5981    1.2500    0.0000 N   0  0  0  0  0  0  0  0  0  0  0  0
    3.7320   -0.2500    0.0000 C   0  0  1  0  0  0  0  0  0  0  0  0
    2.8660   -0.7500    0.0000 C   0  0  2  0  0  0  0  0  0  0  0  0
    5.4641    0.7500    0.0000 C   0  0  1  0  0  0  0  0  0  0  0  0
    6.3301    1.2500    0.0000 C   0  0  0  0  0  0  0  0  0  0  0  0
    3.7320    0.7500    0.0000 C   0  0  0  0  0  0  0  0  0  0  0  0
    5.4641   -0.2500    0.0000 C   0  0  0  0  0  0  0  0  0  0  0  0
    2.8660   -1.7500    0.0000 C   0  0  0  0  0  0  0  0  0  0  0  0
    2.0000   -0.2500    0.0000 C   0  0  0  0  0  0  0  0  0  0  0  0
    6.3301    2.2500    0.0000 C   0  0  0  0  0  0  0  0  0  0  0  0
    7.1962    0.7500    0.0000 C   0  0  0  0  0  0  0  0  0  0  0  0
    2.0000   -2.2500    0.0000 C   0  0  0  0  0  0  0  0  0  0  0  0
    3.7320   -1.1000    0.0000 H   0  0  0  0  0  0  0  0  0  0  0  0
    2.8660   -0.1300    0.0000 H   0  0  0  0  0  0  0  0  0  0  0  0
    5.4641    1.3700    0.0000 H   0  0  0  0  0  0  0  0  0  0  0  0
    6.8671    1.5600    0.0000 H   0  0  0  0  0  0  0  0  0  0  0  0
    4.5981   -1.3700    0.0000 H   0  0  0  0  0  0  0  0  0  0  0  0
    4.5981    1.8700    0.0000 H   0  0  0  0  0  0  0  0  0  0  0  0
    3.0781   -2.3326    0.0000 H   0  0  0  0  0  0  0  0  0  0  0  0
    3.4766   -1.6423    0.0000 H   0  0  0  0  0  0  0  0  0  0  0  0
    2.3100    0.2869    0.0000 H   0  0  0  0  0  0  0  0  0  0  0  0
    1.4631    0.0600    0.0000 H   0  0  0  0  0  0  0  0  0  0  0  0
    1.6900   -0.7869    0.0000 H   0  0  0  0  0  0  0  0  0  0  0  0
    6.8862    0.2131    0.0000 H   0  0  0  0  0  0  0  0  0  0  0  0
    7.7331    0.4400    0.0000 H   0  0  0  0  0  0  0  0  0  0  0  0
    7.5062    1.2869    0.0000 H   0  0  0  0  0  0  0  0  0  0  0  0
    6.9501    2.2500    0.0000 H   0  0  0  0  0  0  0  0  0  0  0  0
    6.3301    2.8700    0.0000 H   0  0  0  0  0  0  0  0  0  0  0  0
    5.7101    2.2500    0.0000 H   0  0  0  0  0  0  0  0  0  0  0  0
    1.6900   -1.7131    0.0000 H   0  0  0  0  0  0  0  0  0  0  0  0
    1.4631   -2.5600    0.0000 H   0  0  0  0  0  0  0  0  0  0  0  0
    2.3100   -2.7869    0.0000 H   0  0  0  0  0  0  0  0  0  0  0  0
  1  9  2  0  0  0  0
  2 10  2  0  0  0  0
  3  5  1  0  0  0  0
  3 10  1  0  0  0  0
  3 20  1  0  0  0  0
  4  7  1  0  0  0  0
  4  9  1  0  0  0  0
  4 21  1  0  0  0  0
  5  6  1  0  0  0  0
  5  9  1  0  0  0  0
  5 16  1  6  0  0  0
  6 11  1  0  0  0  0
  6 12  1  6  0  0  0
  6 17  1  0  0  0  0
  7  8  1  1  0  0  0
  7 10  1  0  0  0  0
  7 18  1  0  0  0  0
  8 13  1  0  0  0  0
  8 14  1  0  0  0  0
  8 19  1  0  0  0  0
 11 15  1  0  0  0  0
 11 22  1  0  0  0  0
 11 23  1  0  0  0  0
 12 24  1  0  0  0  0
 12 25  1  0  0  0  0
 12 26  1  0  0  0  0
 13 30  1  0  0  0  0
 13 31  1  0  0  0  0
 13 32  1  0  0  0  0
 14 27  1  0  0  0  0
 14 28  1  0  0  0  0
 14 29  1  0  0  0  0
 15 33  1  0  0  0  0
 15 34  1  0  0  0  0
 15 35  1  0  0  0  0
M  END
> <PUBCHEM_COMPOUND_CID>
12086127

> <PUBCHEM_COMPOUND_CANONICALIZED>
1

> <PUBCHEM_CACTVS_COMPLEXITY>
263

> <PUBCHEM_CACTVS_HBOND_ACCEPTOR>
2

> <PUBCHEM_CACTVS_HBOND_DONOR>
2

> <PUBCHEM_CACTVS_ROTATABLE_BOND>
3

> <PUBCHEM_CACTVS_SUBSKEYS>
AAADceBzMAAAAAAAAAAAAAAAAAAAAAAAAAAsAAAAAAAAAAAAAAAAHgAQAAAADSjBgAQCAALAAAAIAAEQEAAAAAAAAAAAAIGIAAAAQBIAgCAUAAAAFgCAAAAYAAAKAAAAAAAAAAAAAAAAAAAAAAAAAAAAAA==

> <PUBCHEM_IUPAC_OPENEYE_NAME>
(3S,6S)-3-isopropyl-6-[(1S)-1-methylpropyl]piperazine-2,5-dione

> <PUBCHEM_IUPAC_CAS_NAME>
(3S,6S)-3-[(2S)-butan-2-yl]-6-propan-2-ylpiperazine-2,5-dione

> <PUBCHEM_IUPAC_NAME>
(3S,6S)-3-[(2S)-butan-2-yl]-6-propan-2-ylpiperazine-2,5-dione

> <PUBCHEM_IUPAC_SYSTEMATIC_NAME>
(3S,6S)-3-[(2S)-butan-2-yl]-6-propan-2-yl-piperazine-2,5-dione

> <PUBCHEM_IUPAC_TRADITIONAL_NAME>
(3S,6S)-3-isopropyl-6-[(1S)-1-methylpropyl]piperazine-2,5-quinone

> <PUBCHEM_IUPAC_INCHI>
InChI=1S/C11H20N2O2/c1-5-7(4)9-11(15)12-8(6(2)3)10(14)13-9/h6-9H,5H2,1-4H3,(H,12,15)(H,13,14)/t7-,8-,9-/m0/s1

> <PUBCHEM_IUPAC_INCHIKEY>
XIQXUFYJMBDYSU-CIUDSAMLSA-N

> <PUBCHEM_XLOGP3_AA>
1.8

> <PUBCHEM_EXACT_MASS>
212.152

> <PUBCHEM_MOLECULAR_FORMULA>
C11H20N2O2

> <PUBCHEM_MOLECULAR_WEIGHT>
212.293

> <PUBCHEM_OPENEYE_CAN_SMILES>
CCC(C)C1C(=O)NC(C(=O)N1)C(C)C

> <PUBCHEM_OPENEYE_ISO_SMILES>
CC[C@H](C)[C@H]1C(=O)N[C@H](C(=O)N1)C(C)C

> <PUBCHEM_CACTVS_TPSA>
58.2

> <PUBCHEM_MONOISOTOPIC_WEIGHT>
212.152

> <PUBCHEM_TOTAL_CHARGE>
0

> <PUBCHEM_HEAVY_ATOM_COUNT>
15

> <PUBCHEM_ATOM_DEF_STEREO_COUNT>
3

> <PUBCHEM_ATOM_UDEF_STEREO_COUNT>
0

> <PUBCHEM_BOND_DEF_STEREO_COUNT>
0

> <PUBCHEM_BOND_UDEF_STEREO_COUNT>
0

> <PUBCHEM_ISOTOPIC_ATOM_COUNT>
0

> <PUBCHEM_COMPONENT_COUNT>
1

> <PUBCHEM_CACTVS_TAUTO_COUNT>
9

> <PUBCHEM_COORDINATE_TYPE>
1
5
255

> <PUBCHEM_BONDANNOTATIONS>
5  16  6
6  12  6
7  8  5

$$$$
