5322034
  -OEChem-12071809222D

 30 29  0     0  0  0  0  0  0999 V2000
    5.4641    0.3355    0.0000 O   0  0  0  0  0  0  0  0  0  0  0  0
    3.7320   -0.6645    0.0000 O   0  0  0  0  0  0  0  0  0  0  0  0
    4.0981    0.7015    0.0000 O   0  0  0  0  0  0  0  0  0  0  0  0
    4.5981   -1.8966    0.0000 O   0  0  0  0  0  0  0  0  0  0  0  0
    4.5981   -0.1645    0.0000 C   0  0  0  0  0  0  0  0  0  0  0  0
    5.0981   -1.0306    0.0000 C   0  0  0  0  0  0  0  0  0  0  0  0
    6.3301   -0.1645    0.0000 C   0  0  0  0  0  0  0  0  0  0  0  0
    2.8660   -0.1645    0.0000 C   0  0  0  0  0  0  0  0  0  0  0  0
    4.5981    1.5675    0.0000 C   0  0  0  0  0  0  0  0  0  0  0  0
    7.1962    0.3355    0.0000 C   0  0  0  0  0  0  0  0  0  0  0  0
    2.0000   -0.6645    0.0000 C   0  0  0  0  0  0  0  0  0  0  0  0
    4.0981    2.4335    0.0000 C   0  0  0  0  0  0  0  0  0  0  0  0
    5.5730   -1.4291    0.0000 H   0  0  0  0  0  0  0  0  0  0  0  0
    5.5730   -0.6320    0.0000 H   0  0  0  0  0  0  0  0  0  0  0  0
    5.0730    1.1690    0.0000 H   0  0  0  0  0  0  0  0  0  0  0  0
    5.0730    1.9660    0.0000 H   0  0  0  0  0  0  0  0  0  0  0  0
    3.2646    0.3104    0.0000 H   0  0  0  0  0  0  0  0  0  0  0  0
    2.4675    0.3104    0.0000 H   0  0  0  0  0  0  0  0  0  0  0  0
    5.9316   -0.6395    0.0000 H   0  0  0  0  0  0  0  0  0  0  0  0
    6.7287   -0.6395    0.0000 H   0  0  0  0  0  0  0  0  0  0  0  0
    4.6350    2.7435    0.0000 H   0  0  0  0  0  0  0  0  0  0  0  0
    3.7881    2.9705    0.0000 H   0  0  0  0  0  0  0  0  0  0  0  0
    3.5611    2.1235    0.0000 H   0  0  0  0  0  0  0  0  0  0  0  0
    1.6900   -0.1276    0.0000 H   0  0  0  0  0  0  0  0  0  0  0  0
    1.4631   -0.9745    0.0000 H   0  0  0  0  0  0  0  0  0  0  0  0
    2.3100   -1.2015    0.0000 H   0  0  0  0  0  0  0  0  0  0  0  0
    7.5062   -0.2015    0.0000 H   0  0  0  0  0  0  0  0  0  0  0  0
    7.7331    0.6455    0.0000 H   0  0  0  0  0  0  0  0  0  0  0  0
    6.8862    0.8724    0.0000 H   0  0  0  0  0  0  0  0  0  0  0  0
    4.9081   -2.4335    0.0000 H   0  0  0  0  0  0  0  0  0  0  0  0
  1  5  1  0  0  0  0
  1  7  1  0  0  0  0
  2  5  1  0  0  0  0
  2  8  1  0  0  0  0
  3  5  1  0  0  0  0
  3  9  1  0  0  0  0
  4  6  1  0  0  0  0
  4 30  1  0  0  0  0
  5  6  1  0  0  0  0
  6 13  1  0  0  0  0
  6 14  1  0  0  0  0
  7 10  1  0  0  0  0
  7 19  1  0  0  0  0
  7 20  1  0  0  0  0
  8 11  1  0  0  0  0
  8 17  1  0  0  0  0
  8 18  1  0  0  0  0
  9 12  1  0  0  0  0
  9 15  1  0  0  0  0
  9 16  1  0  0  0  0
 10 27  1  0  0  0  0
 10 28  1  0  0  0  0
 10 29  1  0  0  0  0
 11 24  1  0  0  0  0
 11 25  1  0  0  0  0
 11 26  1  0  0  0  0
 12 21  1  0  0  0  0
 12 22  1  0  0  0  0
 12 23  1  0  0  0  0
M  END
> <PUBCHEM_COMPOUND_CID>
5322034

> <PUBCHEM_COMPOUND_CANONICALIZED>
1

> <PUBCHEM_CACTVS_COMPLEXITY>
88.2

> <PUBCHEM_CACTVS_HBOND_ACCEPTOR>
4

> <PUBCHEM_CACTVS_HBOND_DONOR>
1

> <PUBCHEM_CACTVS_ROTATABLE_BOND>
7

> <PUBCHEM_CACTVS_SUBSKEYS>
AAADceBwOAAAAAAAAAAAAAAAAAAAAAAAAAAAAAAAAAAAAAAAAAAAGgAACAAAAACggAICCAAABgAAAAAAAAAAAAAAAAAAAAAAAAAREAAAAAAiAAAAAAAHAAAAAAAAAAAAAAAAAAAAAAAAAAAAAAAAAAAAAA==

> <PUBCHEM_IUPAC_OPENEYE_NAME>
2,2,2-triethoxyethanol

> <PUBCHEM_IUPAC_CAS_NAME>
2,2,2-triethoxyethanol

> <PUBCHEM_IUPAC_NAME>
2,2,2-triethoxyethanol

> <PUBCHEM_IUPAC_SYSTEMATIC_NAME>
2,2,2-triethoxyethanol

> <PUBCHEM_IUPAC_TRADITIONAL_NAME>
2,2,2-triethoxyethanol

> <PUBCHEM_IUPAC_INCHI>
InChI=1S/C8H18O4/c1-4-10-8(7-9,11-5-2)12-6-3/h9H,4-7H2,1-3H3

> <PUBCHEM_IUPAC_INCHIKEY>
UOGBMDMLDZZHGP-UHFFFAOYSA-N

> <PUBCHEM_XLOGP3_AA>
0.3

> <PUBCHEM_EXACT_MASS>
178.121

> <PUBCHEM_MOLECULAR_FORMULA>
C8H18O4

> <PUBCHEM_MOLECULAR_WEIGHT>
178.228

> <PUBCHEM_OPENEYE_CAN_SMILES>
CCOC(CO)(OCC)OCC

> <PUBCHEM_OPENEYE_ISO_SMILES>
CCOC(CO)(OCC)OCC

> <PUBCHEM_CACTVS_TPSA>
47.9

> <PUBCHEM_MONOISOTOPIC_WEIGHT>
178.121

> <PUBCHEM_TOTAL_CHARGE>
0

> <PUBCHEM_HEAVY_ATOM_COUNT>
12

> <PUBCHEM_ATOM_DEF_STEREO_COUNT>
0

> <PUBCHEM_ATOM_UDEF_STEREO_COUNT>
0

> <PUBCHEM_BOND_DEF_STEREO_COUNT>
0

> <PUBCHEM_BOND_UDEF_STEREO_COUNT>
0

> <PUBCHEM_ISOTOPIC_ATOM_COUNT>
0

> <PUBCHEM_COMPONENT_COUNT>
1

> <PUBCHEM_CACTVS_TAUTO_COUNT>
1

> <PUBCHEM_COORDINATE_TYPE>
1
5
255

$$$$
