5320225
  -OEChem-12071809292D

190198  0     1  0  0  0  0  0999 V2000
   11.4032    1.5069    0.0000 O   0  0  0  0  0  0  0  0  0  0  0  0
   13.1060   -4.6833    0.0000 O   0  0  0  0  0  0  0  0  0  0  0  0
   11.9993    3.9697    0.0000 O   0  0  0  0  0  0  0  0  0  0  0  0
   11.3740   -4.6833    0.0000 O   0  0  0  0  0  0  0  0  0  0  0  0
   11.6356    5.6631    0.0000 O   0  0  0  0  0  0  0  0  0  0  0  0
   13.1060   -6.6833    0.0000 O   0  0  0  0  0  0  0  0  0  0  0  0
   13.9547    4.3896    0.0000 O   0  0  0  0  0  0  0  0  0  0  0  0
   11.3740   -7.6833    0.0000 O   0  0  0  0  0  0  0  0  0  0  0  0
   14.5687    6.2931    0.0000 O   0  0  0  0  0  0  0  0  0  0  0  0
    9.6419   -6.6833    0.0000 O   0  0  0  0  0  0  0  0  0  0  0  0
   13.2273    7.7765    0.0000 O   0  0  0  0  0  0  0  0  0  0  0  0
   10.2942    7.1465    0.0000 O   0  0  0  0  0  0  0  0  0  0  0  0
   12.2400   -8.1833    0.0000 O   0  0  0  0  0  0  0  0  0  0  0  0
    8.7759   -5.1833    0.0000 O   0  0  0  0  0  0  0  0  0  0  0  0
   14.8381   -7.6833    0.0000 O   0  0  0  0  0  0  0  0  0  0  0  0
   14.8381   -9.6833    0.0000 O   0  0  0  0  0  0  0  0  0  0  0  0
    8.6458    7.6783    0.0000 O   0  0  0  0  0  0  0  0  0  0  0  0
   13.1060  -10.6833    0.0000 O   0  0  0  0  0  0  0  0  0  0  0  0
   10.5079   -9.1833    0.0000 O   0  0  0  0  0  0  0  0  0  0  0  0
   10.9082    9.0500    0.0000 O   0  0  0  0  0  0  0  0  0  0  0  0
    9.5668   10.5334    0.0000 O   0  0  0  0  0  0  0  0  0  0  0  0
    7.6114   10.1134    0.0000 O   0  0  0  0  0  0  0  0  0  0  0  0
    6.6904    7.2583    0.0000 O   0  0  0  0  0  0  0  0  0  0  0  0
    5.0420    7.7900    0.0000 O   0  0  0  0  0  0  0  0  0  0  0  0
    6.0764    5.3549    0.0000 O   0  0  0  0  0  0  0  0  0  0  0  0
    4.1210    4.9349    0.0000 O   0  0  0  0  0  0  0  0  0  0  0  0
    2.7796    6.4183    0.0000 O   0  0  0  0  0  0  0  0  0  0  0  0
    2.4158    8.1118    0.0000 O   0  0  0  0  0  0  0  0  0  0  0  0
   14.0071    0.0170    0.0000 C   0  0  3  0  0  0  0  0  0  0  0  0
   14.0032    1.0169    0.0000 C   0  0  3  0  0  0  0  0  0  0  0  0
   13.1430   -0.4864    0.0000 C   0  0  3  0  0  0  0  0  0  0  0  0
   13.1309   -1.5279    0.0000 C   0  0  3  0  0  0  0  0  0  0  0  0
   13.1353    1.5136    0.0000 C   0  0  3  0  0  0  0  0  0  0  0  0
   14.0310   -2.0522    0.0000 C   0  0  3  0  0  0  0  0  0  0  0  0
   14.9190   -0.4864    0.0000 C   0  0  0  0  0  0  0  0  0  0  0  0
   13.3407    2.4862    0.0000 C   0  0  3  0  0  0  0  0  0  0  0  0
   12.2750    0.0103    0.0000 C   0  0  0  0  0  0  0  0  0  0  0  0
   12.2712    1.0103    0.0000 C   0  0  3  0  0  0  0  0  0  0  0  0
   14.7377    1.6869    0.0000 C   0  0  0  0  0  0  0  0  0  0  0  0
   14.9311   -1.5279    0.0000 C   0  0  0  0  0  0  0  0  0  0  0  0
   14.0435   -3.1372    0.0000 C   0  0  0  0  0  0  0  0  0  0  0  0
   14.3290    2.5931    0.0000 C   0  0  0  0  0  0  0  0  0  0  0  0
   12.1810   -2.0522    0.0000 C   0  0  0  0  0  0  0  0  0  0  0  0
   14.9912    0.1944    0.0000 C   0  0  0  0  0  0  0  0  0  0  0  0
   14.9887    0.8471    0.0000 C   0  0  0  0  0  0  0  0  0  0  0  0
   12.2668   -1.0246    0.0000 C   0  0  0  0  0  0  0  0  0  0  0  0
   13.1060   -3.6833    0.0000 C   0  0  3  0  0  0  0  0  0  0  0  0
   12.6700    3.2279    0.0000 C   0  0  3  0  0  0  0  0  0  0  0  0
   12.1685   -3.1372    0.0000 C   0  0  0  0  0  0  0  0  0  0  0  0
   15.0435   -3.1294    0.0000 C   0  0  0  0  0  0  0  0  0  0  0  0
   14.5502   -3.9993    0.0000 C   0  0  0  0  0  0  0  0  0  0  0  0
   13.4117    3.8986    0.0000 C   0  0  0  0  0  0  0  0  0  0  0  0
   11.9283    2.5572    0.0000 C   0  0  0  0  0  0  0  0  0  0  0  0
   14.3635    3.5916    0.0000 C   0  0  0  0  0  0  0  0  0  0  0  0
   12.2400   -5.1833    0.0000 C   0  0  2  0  0  0  0  0  0  0  0  0
   12.3063    4.9214    0.0000 C   0  0  2  0  0  0  0  0  0  0  0  0
   12.2400   -6.1833    0.0000 C   0  0  1  0  0  0  0  0  0  0  0  0
   13.2840    5.1314    0.0000 C   0  0  1  0  0  0  0  0  0  0  0  0
   15.1052    4.2624    0.0000 C   0  0  0  0  0  0  0  0  0  0  0  0
   11.3740   -6.6833    0.0000 C   0  0  2  0  0  0  0  0  0  0  0  0
   13.5910    6.0831    0.0000 C   0  0  2  0  0  0  0  0  0  0  0  0
   10.5079   -5.1833    0.0000 C   0  0  1  0  0  0  0  0  0  0  0  0
   11.9426    6.6148    0.0000 C   0  0  1  0  0  0  0  0  0  0  0  0
   10.5079   -6.1833    0.0000 C   0  0  1  0  0  0  0  0  0  0  0  0
   12.9203    6.8248    0.0000 C   0  0  1  0  0  0  0  0  0  0  0  0
   16.0569    3.9554    0.0000 C   0  0  0  0  0  0  0  0  0  0  0  0
    9.6419   -4.6833    0.0000 C   0  0  0  0  0  0  0  0  0  0  0  0
   11.2719    7.3565    0.0000 C   0  0  0  0  0  0  0  0  0  0  0  0
   13.1060   -7.6833    0.0000 C   0  0  2  0  0  0  0  0  0  0  0  0
   16.7986    4.6261    0.0000 C   0  0  0  0  0  0  0  0  0  0  0  0
   16.2669    2.9777    0.0000 C   0  0  0  0  0  0  0  0  0  0  0  0
   13.9720   -8.1833    0.0000 C   0  0  1  0  0  0  0  0  0  0  0  0
   13.9720   -9.1833    0.0000 C   0  0  2  0  0  0  0  0  0  0  0  0
   12.2400   -9.1833    0.0000 C   0  0  1  0  0  0  0  0  0  0  0  0
   13.1060   -9.6833    0.0000 C   0  0  1  0  0  0  0  0  0  0  0  0
    9.6235    7.8883    0.0000 C   0  0  2  0  0  0  0  0  0  0  0  0
   11.3740   -9.6833    0.0000 C   0  0  0  0  0  0  0  0  0  0  0  0
    9.9305    8.8400    0.0000 C   0  0  1  0  0  0  0  0  0  0  0  0
    9.2598    9.5817    0.0000 C   0  0  2  0  0  0  0  0  0  0  0  0
    7.9751    8.4200    0.0000 C   0  0  1  0  0  0  0  0  0  0  0  0
    8.2821    9.3717    0.0000 C   0  0  1  0  0  0  0  0  0  0  0  0
    6.9974    8.2100    0.0000 C   0  0  0  0  0  0  0  0  0  0  0  0
    5.7127    7.0483    0.0000 C   0  0  2  0  0  0  0  0  0  0  0  0
    5.4057    6.0966    0.0000 C   0  0  1  0  0  0  0  0  0  0  0  0
    4.4280    5.8866    0.0000 C   0  0  2  0  0  0  0  0  0  0  0  0
    4.0642    7.5800    0.0000 C   0  0  1  0  0  0  0  0  0  0  0  0
    3.7572    6.6283    0.0000 C   0  0  1  0  0  0  0  0  0  0  0  0
    3.3935    8.3218    0.0000 C   0  0  0  0  0  0  0  0  0  0  0  0
   13.8775   -0.9142    0.0000 H   0  0  0  0  0  0  0  0  0  0  0  0
   12.4463    2.0115    0.0000 H   0  0  0  0  0  0  0  0  0  0  0  0
   14.7704   -2.4716    0.0000 H   0  0  0  0  0  0  0  0  0  0  0  0
   15.5311   -0.5854    0.0000 H   0  0  0  0  0  0  0  0  0  0  0  0
   15.1213    0.0997    0.0000 H   0  0  0  0  0  0  0  0  0  0  0  0
   13.6433    3.2805    0.0000 H   0  0  0  0  0  0  0  0  0  0  0  0
   11.6640    0.1156    0.0000 H   0  0  0  0  0  0  0  0  0  0  0  0
   12.0652   -0.5731    0.0000 H   0  0  0  0  0  0  0  0  0  0  0  0
   11.5367    0.5824    0.0000 H   0  0  0  0  0  0  0  0  0  0  0  0
   15.1050    1.1874    0.0000 H   0  0  0  0  0  0  0  0  0  0  0  0
   15.2729    1.9997    0.0000 H   0  0  0  0  0  0  0  0  0  0  0  0
   15.1469   -2.1092    0.0000 H   0  0  0  0  0  0  0  0  0  0  0  0
   15.5407   -1.4148    0.0000 H   0  0  0  0  0  0  0  0  0  0  0  0
   14.9179    2.7871    0.0000 H   0  0  0  0  0  0  0  0  0  0  0  0
   14.1980    3.1991    0.0000 H   0  0  0  0  0  0  0  0  0  0  0  0
   11.9787   -1.4662    0.0000 H   0  0  0  0  0  0  0  0  0  0  0  0
   11.5690   -2.1512    0.0000 H   0  0  0  0  0  0  0  0  0  0  0  0
   15.1012   -0.4158    0.0000 H   0  0  0  0  0  0  0  0  0  0  0  0
   15.6014    0.3044    0.0000 H   0  0  0  0  0  0  0  0  0  0  0  0
   14.8812    0.8046    0.0000 H   0  0  0  0  0  0  0  0  0  0  0  0
   14.8834    0.2361    0.0000 H   0  0  0  0  0  0  0  0  0  0  0  0
   15.5997    0.7418    0.0000 H   0  0  0  0  0  0  0  0  0  0  0  0
   15.0940    1.4581    0.0000 H   0  0  0  0  0  0  0  0  0  0  0  0
   12.5789   -0.4889    0.0000 H   0  0  0  0  0  0  0  0  0  0  0  0
   11.7311   -0.7125    0.0000 H   0  0  0  0  0  0  0  0  0  0  0  0
   11.9548   -1.5603    0.0000 H   0  0  0  0  0  0  0  0  0  0  0  0
   13.8429   -4.1068    0.0000 H   0  0  0  0  0  0  0  0  0  0  0  0
   11.5589   -3.0240    0.0000 H   0  0  0  0  0  0  0  0  0  0  0  0
   11.9527   -3.7184    0.0000 H   0  0  0  0  0  0  0  0  0  0  0  0
   15.0483   -3.7494    0.0000 H   0  0  0  0  0  0  0  0  0  0  0  0
   15.6635   -3.1247    0.0000 H   0  0  0  0  0  0  0  0  0  0  0  0
   15.0387   -2.5095    0.0000 H   0  0  0  0  0  0  0  0  0  0  0  0
   14.0157   -4.3134    0.0000 H   0  0  0  0  0  0  0  0  0  0  0  0
   14.8643   -4.5338    0.0000 H   0  0  0  0  0  0  0  0  0  0  0  0
   15.0847   -3.6852    0.0000 H   0  0  0  0  0  0  0  0  0  0  0  0
   10.8675    1.1949    0.0000 H   0  0  0  0  0  0  0  0  0  0  0  0
   13.7016    4.4467    0.0000 H   0  0  0  0  0  0  0  0  0  0  0  0
   12.9224    4.2793    0.0000 H   0  0  0  0  0  0  0  0  0  0  0  0
   11.5125    3.0171    0.0000 H   0  0  0  0  0  0  0  0  0  0  0  0
   11.4684    2.1414    0.0000 H   0  0  0  0  0  0  0  0  0  0  0  0
   12.3441    2.0974    0.0000 H   0  0  0  0  0  0  0  0  0  0  0  0
   14.0735    3.0436    0.0000 H   0  0  0  0  0  0  0  0  0  0  0  0
   14.8528    3.2110    0.0000 H   0  0  0  0  0  0  0  0  0  0  0  0
   12.2400   -4.5633    0.0000 H   0  0  0  0  0  0  0  0  0  0  0  0
   12.7221    4.4615    0.0000 H   0  0  0  0  0  0  0  0  0  0  0  0
   12.2400   -6.8033    0.0000 H   0  0  0  0  0  0  0  0  0  0  0  0
   13.8902    5.2616    0.0000 H   0  0  0  0  0  0  0  0  0  0  0  0
   14.9750    4.8685    0.0000 H   0  0  0  0  0  0  0  0  0  0  0  0
   10.8370   -6.9933    0.0000 H   0  0  0  0  0  0  0  0  0  0  0  0
   13.7813    6.6731    0.0000 H   0  0  0  0  0  0  0  0  0  0  0  0
   10.5079   -4.5633    0.0000 H   0  0  0  0  0  0  0  0  0  0  0  0
   11.3364    6.4846    0.0000 H   0  0  0  0  0  0  0  0  0  0  0  0
    9.9710   -5.8733    0.0000 H   0  0  0  0  0  0  0  0  0  0  0  0
   12.5045    7.2847    0.0000 H   0  0  0  0  0  0  0  0  0  0  0  0
   14.5609    4.5198    0.0000 H   0  0  0  0  0  0  0  0  0  0  0  0
   10.0404   -4.2083    0.0000 H   0  0  0  0  0  0  0  0  0  0  0  0
    9.2434   -4.2083    0.0000 H   0  0  0  0  0  0  0  0  0  0  0  0
   11.7970    7.6862    0.0000 H   0  0  0  0  0  0  0  0  0  0  0  0
   11.0384    7.9309    0.0000 H   0  0  0  0  0  0  0  0  0  0  0  0
   13.6429   -7.3733    0.0000 H   0  0  0  0  0  0  0  0  0  0  0  0
   10.8370   -7.9933    0.0000 H   0  0  0  0  0  0  0  0  0  0  0  0
   14.7590    6.8831    0.0000 H   0  0  0  0  0  0  0  0  0  0  0  0
   15.6607    2.8475    0.0000 H   0  0  0  0  0  0  0  0  0  0  0  0
   16.3971    2.3715    0.0000 H   0  0  0  0  0  0  0  0  0  0  0  0
   17.2144    4.1662    0.0000 H   0  0  0  0  0  0  0  0  0  0  0  0
   17.2585    5.0419    0.0000 H   0  0  0  0  0  0  0  0  0  0  0  0
   16.3828    5.0859    0.0000 H   0  0  0  0  0  0  0  0  0  0  0  0
   16.8730    3.1078    0.0000 H   0  0  0  0  0  0  0  0  0  0  0  0
    9.6419   -7.3033    0.0000 H   0  0  0  0  0  0  0  0  0  0  0  0
   12.8115    8.2364    0.0000 H   0  0  0  0  0  0  0  0  0  0  0  0
   14.5090   -8.4933    0.0000 H   0  0  0  0  0  0  0  0  0  0  0  0
    8.2390   -4.8733    0.0000 H   0  0  0  0  0  0  0  0  0  0  0  0
   13.9720   -9.8033    0.0000 H   0  0  0  0  0  0  0  0  0  0  0  0
   11.7030   -8.8733    0.0000 H   0  0  0  0  0  0  0  0  0  0  0  0
   12.5691   -9.9933    0.0000 H   0  0  0  0  0  0  0  0  0  0  0  0
   10.2297    8.0184    0.0000 H   0  0  0  0  0  0  0  0  0  0  0  0
   14.8381   -7.0633    0.0000 H   0  0  0  0  0  0  0  0  0  0  0  0
   10.9754  -10.1582    0.0000 H   0  0  0  0  0  0  0  0  0  0  0  0
   11.7725  -10.1582    0.0000 H   0  0  0  0  0  0  0  0  0  0  0  0
   10.1208    9.4300    0.0000 H   0  0  0  0  0  0  0  0  0  0  0  0
   14.8381  -10.3033    0.0000 H   0  0  0  0  0  0  0  0  0  0  0  0
   12.5691  -10.9933    0.0000 H   0  0  0  0  0  0  0  0  0  0  0  0
    8.8439   10.0416    0.0000 H   0  0  0  0  0  0  0  0  0  0  0  0
    7.7847    7.8299    0.0000 H   0  0  0  0  0  0  0  0  0  0  0  0
    7.6759    9.2415    0.0000 H   0  0  0  0  0  0  0  0  0  0  0  0
    9.9710   -9.4933    0.0000 H   0  0  0  0  0  0  0  0  0  0  0  0
   11.0985    9.6400    0.0000 H   0  0  0  0  0  0  0  0  0  0  0  0
    6.9744    8.8296    0.0000 H   0  0  0  0  0  0  0  0  0  0  0  0
    6.3832    8.2950    0.0000 H   0  0  0  0  0  0  0  0  0  0  0  0
    9.1509   10.9933    0.0000 H   0  0  0  0  0  0  0  0  0  0  0  0
    7.0052    9.9832    0.0000 H   0  0  0  0  0  0  0  0  0  0  0  0
    6.1285    6.5884    0.0000 H   0  0  0  0  0  0  0  0  0  0  0  0
    5.2153    5.5065    0.0000 H   0  0  0  0  0  0  0  0  0  0  0  0
    3.8218    5.7564    0.0000 H   0  0  0  0  0  0  0  0  0  0  0  0
    4.2546    8.1701    0.0000 H   0  0  0  0  0  0  0  0  0  0  0  0
    3.3414    7.0882    0.0000 H   0  0  0  0  0  0  0  0  0  0  0  0
    5.8860    4.7648    0.0000 H   0  0  0  0  0  0  0  0  0  0  0  0
    3.9186    8.6514    0.0000 H   0  0  0  0  0  0  0  0  0  0  0  0
    3.1601    8.8961    0.0000 H   0  0  0  0  0  0  0  0  0  0  0  0
    3.5148    4.8047    0.0000 H   0  0  0  0  0  0  0  0  0  0  0  0
    2.5892    5.8283    0.0000 H   0  0  0  0  0  0  0  0  0  0  0  0
    2.0000    8.5716    0.0000 H   0  0  0  0  0  0  0  0  0  0  0  0
  1 38  1  0  0  0  0
  1124  1  0  0  0  0
  2 47  1  0  0  0  0
 55  2  1  1  0  0  0
  3 48  1  0  0  0  0
 56  3  1  6  0  0  0
  4 55  1  0  0  0  0
  4 62  1  0  0  0  0
  5 56  1  0  0  0  0
  5 63  1  0  0  0  0
 57  6  1  6  0  0  0
 69  6  1  1  0  0  0
 58  7  1  1  0  0  0
  7143  1  0  0  0  0
 60  8  1  1  0  0  0
  8149  1  0  0  0  0
 61  9  1  6  0  0  0
  9150  1  0  0  0  0
 64 10  1  6  0  0  0
 10157  1  0  0  0  0
 65 11  1  1  0  0  0
 11158  1  0  0  0  0
 12 68  1  0  0  0  0
 76 12  1  6  0  0  0
 13 69  1  0  0  0  0
 13 74  1  0  0  0  0
 14 67  1  0  0  0  0
 14160  1  0  0  0  0
 72 15  1  6  0  0  0
 15165  1  0  0  0  0
 73 16  1  1  0  0  0
 16169  1  0  0  0  0
 17 76  1  0  0  0  0
 17 80  1  0  0  0  0
 75 18  1  6  0  0  0
 18170  1  0  0  0  0
 19 77  1  0  0  0  0
 19174  1  0  0  0  0
 78 20  1  1  0  0  0
 20175  1  0  0  0  0
 79 21  1  6  0  0  0
 21178  1  0  0  0  0
 81 22  1  1  0  0  0
 22179  1  0  0  0  0
 23 82  1  0  0  0  0
 83 23  1  1  0  0  0
 24 83  1  0  0  0  0
 24 86  1  0  0  0  0
 84 25  1  6  0  0  0
 25185  1  0  0  0  0
 85 26  1  1  0  0  0
 26188  1  0  0  0  0
 87 27  1  6  0  0  0
 27189  1  0  0  0  0
 28 88  1  0  0  0  0
 28190  1  0  0  0  0
 29 30  1  0  0  0  0
 29 31  1  0  0  0  0
 29 35  1  0  0  0  0
 29 44  1  0  0  0  0
 30 33  1  0  0  0  0
 30 39  1  0  0  0  0
 30 45  1  0  0  0  0
 31 32  1  0  0  0  0
 31 37  1  0  0  0  0
 31 89  1  0  0  0  0
 32 34  1  0  0  0  0
 32 43  1  0  0  0  0
 32 46  1  0  0  0  0
 33 36  1  0  0  0  0
 33 38  1  0  0  0  0
 33 90  1  0  0  0  0
 34 40  1  0  0  0  0
 34 41  1  0  0  0  0
 34 91  1  0  0  0  0
 35 40  1  0  0  0  0
 35 92  1  0  0  0  0
 35 93  1  0  0  0  0
 36 42  1  0  0  0  0
 36 48  1  0  0  0  0
 36 94  1  0  0  0  0
 37 38  1  0  0  0  0
 37 95  1  0  0  0  0
 37 96  1  0  0  0  0
 38 97  1  0  0  0  0
 39 42  1  0  0  0  0
 39 98  1  0  0  0  0
 39 99  1  0  0  0  0
 40100  1  0  0  0  0
 40101  1  0  0  0  0
 41 47  1  0  0  0  0
 41 50  1  0  0  0  0
 41 51  1  0  0  0  0
 42102  1  0  0  0  0
 42103  1  0  0  0  0
 43 49  1  0  0  0  0
 43104  1  0  0  0  0
 43105  1  0  0  0  0
 44106  1  0  0  0  0
 44107  1  0  0  0  0
 44108  1  0  0  0  0
 45109  1  0  0  0  0
 45110  1  0  0  0  0
 45111  1  0  0  0  0
 46112  1  0  0  0  0
 46113  1  0  0  0  0
 46114  1  0  0  0  0
 47 49  1  0  0  0  0
 47115  1  0  0  0  0
 48 52  1  0  0  0  0
 48 53  1  0  0  0  0
 49116  1  0  0  0  0
 49117  1  0  0  0  0
 50118  1  0  0  0  0
 50119  1  0  0  0  0
 50120  1  0  0  0  0
 51121  1  0  0  0  0
 51122  1  0  0  0  0
 51123  1  0  0  0  0
 52 54  1  0  0  0  0
 52125  1  0  0  0  0
 52126  1  0  0  0  0
 53127  1  0  0  0  0
 53128  1  0  0  0  0
 53129  1  0  0  0  0
 54 59  1  0  0  0  0
 54130  1  0  0  0  0
 54131  1  0  0  0  0
 55 57  1  0  0  0  0
 55132  1  0  0  0  0
 56 58  1  0  0  0  0
 56133  1  0  0  0  0
 57 60  1  0  0  0  0
 57134  1  0  0  0  0
 58 61  1  0  0  0  0
 58135  1  0  0  0  0
 59 66  2  0  0  0  0
 59136  1  0  0  0  0
 60 64  1  0  0  0  0
 60137  1  0  0  0  0
 61 65  1  0  0  0  0
 61138  1  0  0  0  0
 62 64  1  0  0  0  0
 62 67  1  1  0  0  0
 62139  1  0  0  0  0
 63 65  1  0  0  0  0
 63 68  1  6  0  0  0
 63140  1  0  0  0  0
 64141  1  0  0  0  0
 65142  1  0  0  0  0
 66 70  1  0  0  0  0
 66 71  1  0  0  0  0
 67144  1  0  0  0  0
 67145  1  0  0  0  0
 68146  1  0  0  0  0
 68147  1  0  0  0  0
 69 72  1  0  0  0  0
 69148  1  0  0  0  0
 70153  1  0  0  0  0
 70154  1  0  0  0  0
 70155  1  0  0  0  0
 71151  1  0  0  0  0
 71152  1  0  0  0  0
 71156  1  0  0  0  0
 72 73  1  0  0  0  0
 72159  1  0  0  0  0
 73 75  1  0  0  0  0
 73161  1  0  0  0  0
 74 75  1  0  0  0  0
 74 77  1  1  0  0  0
 74162  1  0  0  0  0
 75163  1  0  0  0  0
 76 78  1  0  0  0  0
 76164  1  0  0  0  0
 77166  1  0  0  0  0
 77167  1  0  0  0  0
 78 79  1  0  0  0  0
 78168  1  0  0  0  0
 79 81  1  0  0  0  0
 79171  1  0  0  0  0
 80 81  1  0  0  0  0
 80 82  1  6  0  0  0
 80172  1  0  0  0  0
 81173  1  0  0  0  0
 82176  1  0  0  0  0
 82177  1  0  0  0  0
 83 84  1  0  0  0  0
 83180  1  0  0  0  0
 84 85  1  0  0  0  0
 84181  1  0  0  0  0
 85 87  1  0  0  0  0
 85182  1  0  0  0  0
 86 87  1  0  0  0  0
 86 88  1  1  0  0  0
 86183  1  0  0  0  0
 87184  1  0  0  0  0
 88186  1  0  0  0  0
 88187  1  0  0  0  0
M  END
> <PUBCHEM_COMPOUND_CID>
5320225

> <PUBCHEM_COMPOUND_CANONICALIZED>
1

> <PUBCHEM_CACTVS_COMPLEXITY>
2320

> <PUBCHEM_CACTVS_HBOND_ACCEPTOR>
28

> <PUBCHEM_CACTVS_HBOND_DONOR>
18

> <PUBCHEM_CACTVS_ROTATABLE_BOND>
19

> <PUBCHEM_CACTVS_SUBSKEYS>
AAADcfB8PgAAAAAAAAAAAAAAAAAAAYAAAAA0aNEiQAAAAGDAAAAAGgAACAAAD1SwgAMCCAAABgCAAiBCAAAAAAAgAAAACAAAAAgREAIAAQAiQAAFgAAPAAPA4PwPgAAAAAAAAADAAAYAADAAAQAACAAAAA==

> <PUBCHEM_IUPAC_OPENEYE_NAME>
(2R,3R,4S,5S,6R)-2-[[(2R,3S,4S,5R,6R)-6-[[(2R,3S,4S,5R,6S)-6-[1-[3-[(2R,3R,4S,5S,6R)-4,5-dihydroxy-6-(hydroxymethyl)-3-[(2S,3R,4S,5S,6R)-3,4,5-trihydroxy-6-(hydroxymethyl)tetrahydropyran-2-yl]oxy-tetrahydropyran-2-yl]oxy-12-hydroxy-4,4,8,10,14-pentamethyl-2,3,5,6,7,9,11,12,13,15,16,17-dodecahydro-1H-cyclopenta[a]phenanthren-17-yl]-1,5-dimethyl-hex-4-enoxy]-3,4,5-trihydroxy-tetrahydropyran-2-yl]methoxy]-3,4,5-trihydroxy-tetrahydropyran-2-yl]methoxy]-6-(hydroxymethyl)tetrahydropyran-3,4,5-triol

> <PUBCHEM_IUPAC_CAS_NAME>
(2R,3R,4S,5S,6R)-2-[[(2R,3S,4S,5R,6R)-6-[[(2R,3S,4S,5R,6S)-6-[2-[3-[[(2R,3R,4S,5S,6R)-4,5-dihydroxy-6-(hydroxymethyl)-3-[[(2S,3R,4S,5S,6R)-3,4,5-trihydroxy-6-(hydroxymethyl)-2-oxanyl]oxy]-2-oxanyl]oxy]-12-hydroxy-4,4,8,10,14-pentamethyl-2,3,5,6,7,9,11,12,13,15,16,17-dodecahydro-1H-cyclopenta[a]phenanthren-17-yl]-6-methylhept-5-en-2-yl]oxy-3,4,5-trihydroxy-2-oxanyl]methoxy]-3,4,5-trihydroxy-2-oxanyl]methoxy]-6-(hydroxymethyl)oxane-3,4,5-triol

> <PUBCHEM_IUPAC_NAME>
(2R,3R,4S,5S,6R)-2-[[(2R,3S,4S,5R,6R)-6-[[(2R,3S,4S,5R,6S)-6-[2-[3-[(2R,3R,4S,5S,6R)-4,5-dihydroxy-6-(hydroxymethyl)-3-[(2S,3R,4S,5S,6R)-3,4,5-trihydroxy-6-(hydroxymethyl)oxan-2-yl]oxyoxan-2-yl]oxy-12-hydroxy-4,4,8,10,14-pentamethyl-2,3,5,6,7,9,11,12,13,15,16,17-dodecahydro-1H-cyclopenta[a]phenanthren-17-yl]-6-methylhept-5-en-2-yl]oxy-3,4,5-trihydroxyoxan-2-yl]methoxy]-3,4,5-trihydroxyoxan-2-yl]methoxy]-6-(hydroxymethyl)oxane-3,4,5-triol

> <PUBCHEM_IUPAC_SYSTEMATIC_NAME>
(2R,3S,4S,5R,6R)-2-(hydroxymethyl)-6-[[(2R,3S,4S,5R,6R)-6-[[(2R,3S,4S,5R,6S)-6-[2-[3-[(2R,3R,4S,5S,6R)-6-(hydroxymethyl)-3-[(2S,3R,4S,5S,6R)-6-(hydroxymethyl)-3,4,5-tris(oxidanyl)oxan-2-yl]oxy-4,5-bis(oxidanyl)oxan-2-yl]oxy-4,4,8,10,14-pentamethyl-12-oxidanyl-2,3,5,6,7,9,11,12,13,15,16,17-dodecahydro-1H-cyclopenta[a]phenanthren-17-yl]-6-methyl-hept-5-en-2-yl]oxy-3,4,5-tris(oxidanyl)oxan-2-yl]methoxy]-3,4,5-tris(oxidanyl)oxan-2-yl]methoxy]oxane-3,4,5-triol

> <PUBCHEM_IUPAC_TRADITIONAL_NAME>
(2R,3R,4S,5S,6R)-2-[[(2R,3S,4S,5R,6R)-6-[[(2R,3S,4S,5R,6S)-6-[1-[3-[(2R,3R,4S,5S,6R)-4,5-dihydroxy-6-methylol-3-[(2S,3R,4S,5S,6R)-3,4,5-trihydroxy-6-methylol-tetrahydropyran-2-yl]oxy-tetrahydropyran-2-yl]oxy-12-hydroxy-4,4,8,10,14-pentamethyl-2,3,5,6,7,9,11,12,13,15,16,17-dodecahydro-1H-cyclopenta[a]phenanthren-17-yl]-1,5-dimethyl-hex-4-enoxy]-3,4,5-trihydroxy-tetrahydropyran-2-yl]methoxy]-3,4,5-trihydroxy-tetrahydropyran-2-yl]methoxy]-6-methylol-tetrahydropyran-3,4,5-triol

> <PUBCHEM_IUPAC_INCHI>
InChI=1S/C60H102O28/c1-24(2)10-9-14-60(8,88-54-49(78)44(73)40(69)31(85-54)23-80-52-47(76)43(72)39(68)30(84-52)22-79-51-46(75)41(70)36(65)27(19-61)81-51)25-11-16-59(7)35(25)26(64)18-33-57(5)15-13-34(56(3,4)32(57)12-17-58(33,59)6)86-55-50(45(74)38(67)29(21-63)83-55)87-53-48(77)42(71)37(66)28(20-62)82-53/h10,25-55,61-78H,9,11-23H2,1-8H3/t25?,26?,27-,28-,29-,30-,31-,32?,33?,34?,35?,36-,37-,38-,39-,40-,41+,42+,43+,44+,45+,46-,47-,48-,49-,50-,51-,52-,53+,54+,55+,57?,58?,59?,60?/m1/s1

> <PUBCHEM_IUPAC_INCHIKEY>
RTUMUBQEOSTPHN-VEIIDDJFSA-N

> <PUBCHEM_XLOGP3_AA>
-1.9

> <PUBCHEM_EXACT_MASS>
1270.656

> <PUBCHEM_MOLECULAR_FORMULA>
C60H102O28

> <PUBCHEM_MOLECULAR_WEIGHT>
1271.448

> <PUBCHEM_OPENEYE_CAN_SMILES>
CC(=CCCC(C)(C1CCC2(C1C(CC3C2(CCC4C3(CCC(C4(C)C)OC5C(C(C(C(O5)CO)O)O)OC6C(C(C(C(O6)CO)O)O)O)C)C)O)C)OC7C(C(C(C(O7)COC8C(C(C(C(O8)COC9C(C(C(C(O9)CO)O)O)O)O)O)O)O)O)O)C

> <PUBCHEM_OPENEYE_ISO_SMILES>
CC(=CCCC(C)(C1CCC2(C1C(CC3C2(CCC4C3(CCC(C4(C)C)O[C@H]5[C@@H]([C@H]([C@@H]([C@H](O5)CO)O)O)O[C@H]6[C@@H]([C@H]([C@@H]([C@H](O6)CO)O)O)O)C)C)O)C)O[C@H]7[C@@H]([C@H]([C@@H]([C@H](O7)CO[C@H]8[C@@H]([C@H]([C@@H]([C@H](O8)CO[C@H]9[C@@H]([C@H]([C@@H]([C@H](O9)CO)O)O)O)O)O)O)O)O)O)C

> <PUBCHEM_CACTVS_TPSA>
456

> <PUBCHEM_MONOISOTOPIC_WEIGHT>
1270.656

> <PUBCHEM_TOTAL_CHARGE>
0

> <PUBCHEM_HEAVY_ATOM_COUNT>
88

> <PUBCHEM_ATOM_DEF_STEREO_COUNT>
25

> <PUBCHEM_ATOM_UDEF_STEREO_COUNT>
10

> <PUBCHEM_BOND_DEF_STEREO_COUNT>
0

> <PUBCHEM_BOND_UDEF_STEREO_COUNT>
0

> <PUBCHEM_ISOTOPIC_ATOM_COUNT>
0

> <PUBCHEM_COMPONENT_COUNT>
1

> <PUBCHEM_CACTVS_TAUTO_COUNT>
1

> <PUBCHEM_COORDINATE_TYPE>
1
5
255

> <PUBCHEM_BONDANNOTATIONS>
64  10  6
65  11  5
76  12  6
72  15  6
73  16  5
75  18  6
55  2  5
78  20  5
79  21  6
81  22  5
83  23  5
84  25  6
85  26  5
87  27  6
29  44  3
56  3  6
30  45  3
31  89  3
32  46  3
33  90  3
34  91  3
36  94  3
38  97  3
47  115  3
48  52  3
57  6  6
69  6  5
62  67  5
63  68  6
58  7  5
74  77  5
60  8  5
80  82  6
86  88  5
61  9  6

$$$$
