24848135
  -OEChem-12071809312D

 63 61  0     1  0  0  0  0  0999 V2000
    4.7690    4.0369    0.0000 I   0  0  0  0  0  0  0  0  0  0  0  0
    8.2331    4.0369    0.0000 I   0  0  0  0  0  0  0  0  0  0  0  0
    6.5010    1.0369    0.0000 I   0  0  0  0  0  0  0  0  0  0  0  0
    0.0000    5.8885    0.0000 Ca  0  0  0  0  0 15  0  0  0  0  0  0
    6.5010    9.4669    0.0000 O   0  0  0  0  0  0  0  0  0  0  0  0
    7.3671   11.9669    0.0000 O   0  0  0  0  0  0  0  0  0  0  0  0
    5.6350   11.9669    0.0000 O   0  0  0  0  0  0  0  0  0  0  0  0
    8.2331    9.4669    0.0000 O   0  0  0  0  0  0  0  0  0  0  0  0
    9.9651   10.4669    0.0000 O   0  0  0  0  0  0  0  0  0  0  0  0
    8.2331    5.0369    0.0000 O   0  0  0  0  0  0  0  0  0  0  0  0
    9.0991    2.5369    0.0000 O   0  0  0  0  0  0  0  0  0  0  0  0
    8.2331    1.0369    0.0000 O   0  0  0  0  0  0  0  0  0  0  0  0
    5.6350    0.5369    0.0000 O   0  0  0  0  0  0  0  0  0  0  0  0
    3.9030   10.9669    0.0000 N   0  0  0  0  0  0  0  0  0  0  0  0
    6.5010    5.0369    0.0000 N   0  0  0  0  0  0  0  0  0  0  0  0
    4.7690    2.0369    0.0000 N   0  0  0  0  0  0  0  0  0  0  0  0
    6.5010   10.4669    0.0000 C   0  0  1  0  0  0  0  0  0  0  0  0
    7.3671   10.9669    0.0000 C   0  0  1  0  0  0  0  0  0  0  0  0
    5.6350   10.9669    0.0000 C   0  0  2  0  0  0  0  0  0  0  0  0
    8.2331   10.4669    0.0000 C   0  0  1  0  0  0  0  0  0  0  0  0
    4.7690   10.4669    0.0000 C   0  0  0  0  0  0  0  0  0  0  0  0
    9.0991   10.9669    0.0000 C   0  0  0  0  0  0  0  0  0  0  0  0
    3.0369   10.4669    0.0000 C   0  0  0  0  0  0  0  0  0  0  0  0
    6.5010    4.0369    0.0000 C   0  0  0  0  0  0  0  0  0  0  0  0
    5.6350    2.5369    0.0000 C   0  0  0  0  0  0  0  0  0  0  0  0
    5.6350    3.5369    0.0000 C   0  0  0  0  0  0  0  0  0  0  0  0
    7.3671    3.5369    0.0000 C   0  0  0  0  0  0  0  0  0  0  0  0
    7.3671    2.5369    0.0000 C   0  0  0  0  0  0  0  0  0  0  0  0
    6.5010    2.0369    0.0000 C   0  0  0  0  0  0  0  0  0  0  0  0
    5.6350    5.5369    0.0000 C   0  0  0  0  0  0  0  0  0  0  0  0
    7.3671    5.5369    0.0000 C   0  0  0  0  0  0  0  0  0  0  0  0
    8.2331    2.0369    0.0000 C   0  0  0  0  0  0  0  0  0  0  0  0
    7.3671    6.5369    0.0000 C   0  0  0  0  0  0  0  0  0  0  0  0
    4.7690    1.0369    0.0000 C   0  0  0  0  0  0  0  0  0  0  0  0
    3.9030    0.5369    0.0000 C   0  0  0  0  0  0  0  0  0  0  0  0
    5.9641   10.1569    0.0000 H   0  0  0  0  0  0  0  0  0  0  0  0
    7.9040   11.2769    0.0000 H   0  0  0  0  0  0  0  0  0  0  0  0
    6.1720   11.2769    0.0000 H   0  0  0  0  0  0  0  0  0  0  0  0
    8.7700   10.1569    0.0000 H   0  0  0  0  0  0  0  0  0  0  0  0
    4.3705    9.9920    0.0000 H   0  0  0  0  0  0  0  0  0  0  0  0
    5.1675    9.9920    0.0000 H   0  0  0  0  0  0  0  0  0  0  0  0
    9.4976   11.4419    0.0000 H   0  0  0  0  0  0  0  0  0  0  0  0
    8.7006   11.4419    0.0000 H   0  0  0  0  0  0  0  0  0  0  0  0
    5.9641    9.1569    0.0000 H   0  0  0  0  0  0  0  0  0  0  0  0
    7.9040   12.2769    0.0000 H   0  0  0  0  0  0  0  0  0  0  0  0
    3.9030   11.5869    0.0000 H   0  0  0  0  0  0  0  0  0  0  0  0
    5.0981   12.2769    0.0000 H   0  0  0  0  0  0  0  0  0  0  0  0
    8.7700    9.1569    0.0000 H   0  0  0  0  0  0  0  0  0  0  0  0
    2.7269   11.0039    0.0000 H   0  0  0  0  0  0  0  0  0  0  0  0
    2.5000   10.1569    0.0000 H   0  0  0  0  0  0  0  0  0  0  0  0
    3.3469    9.9300    0.0000 H   0  0  0  0  0  0  0  0  0  0  0  0
   10.5021   10.7769    0.0000 H   0  0  0  0  0  0  0  0  0  0  0  0
    5.9450    6.0739    0.0000 H   0  0  0  0  0  0  0  0  0  0  0  0
    5.0981    5.8469    0.0000 H   0  0  0  0  0  0  0  0  0  0  0  0
    5.3250    5.0000    0.0000 H   0  0  0  0  0  0  0  0  0  0  0  0
    4.2320    2.3469    0.0000 H   0  0  0  0  0  0  0  0  0  0  0  0
    7.9871    6.5369    0.0000 H   0  0  0  0  0  0  0  0  0  0  0  0
    7.3671    7.1569    0.0000 H   0  0  0  0  0  0  0  0  0  0  0  0
    6.7471    6.5369    0.0000 H   0  0  0  0  0  0  0  0  0  0  0  0
    3.5930    1.0739    0.0000 H   0  0  0  0  0  0  0  0  0  0  0  0
    3.3660    0.2269    0.0000 H   0  0  0  0  0  0  0  0  0  0  0  0
    4.2130    0.0000    0.0000 H   0  0  0  0  0  0  0  0  0  0  0  0
    9.6360    2.2269    0.0000 H   0  0  0  0  0  0  0  0  0  0  0  0
  1 26  1  0  0  0  0
  2 27  1  0  0  0  0
  3 29  1  0  0  0  0
 17  5  1  6  0  0  0
  5 44  1  0  0  0  0
 18  6  1  6  0  0  0
  6 45  1  0  0  0  0
 19  7  1  6  0  0  0
  7 47  1  0  0  0  0
 20  8  1  1  0  0  0
  8 48  1  0  0  0  0
  9 22  1  0  0  0  0
  9 52  1  0  0  0  0
 10 31  2  0  0  0  0
 11 32  1  0  0  0  0
 11 63  1  0  0  0  0
 12 32  2  0  0  0  0
 13 34  2  0  0  0  0
 14 21  1  0  0  0  0
 14 23  1  0  0  0  0
 14 46  1  0  0  0  0
 15 24  1  0  0  0  0
 15 30  1  0  0  0  0
 15 31  1  0  0  0  0
 16 25  1  0  0  0  0
 16 34  1  0  0  0  0
 16 56  1  0  0  0  0
 17 18  1  0  0  0  0
 17 19  1  0  0  0  0
 17 36  1  0  0  0  0
 18 20  1  0  0  0  0
 18 37  1  0  0  0  0
 19 21  1  0  0  0  0
 19 38  1  0  0  0  0
 20 22  1  0  0  0  0
 20 39  1  0  0  0  0
 21 40  1  0  0  0  0
 21 41  1  0  0  0  0
 22 42  1  0  0  0  0
 22 43  1  0  0  0  0
 23 49  1  0  0  0  0
 23 50  1  0  0  0  0
 23 51  1  0  0  0  0
 24 26  1  0  0  0  0
 24 27  2  0  0  0  0
 25 26  2  0  0  0  0
 25 29  1  0  0  0  0
 27 28  1  0  0  0  0
 28 29  2  0  0  0  0
 28 32  1  0  0  0  0
 30 53  1  0  0  0  0
 30 54  1  0  0  0  0
 30 55  1  0  0  0  0
 31 33  1  0  0  0  0
 33 57  1  0  0  0  0
 33 58  1  0  0  0  0
 33 59  1  0  0  0  0
 34 35  1  0  0  0  0
 35 60  1  0  0  0  0
 35 61  1  0  0  0  0
 35 62  1  0  0  0  0
M  END
> <PUBCHEM_COMPOUND_CID>
24848135

> <PUBCHEM_COMPOUND_CANONICALIZED>
1

> <PUBCHEM_CACTVS_COMPLEXITY>
582

> <PUBCHEM_CACTVS_HBOND_ACCEPTOR>
10

> <PUBCHEM_CACTVS_HBOND_DONOR>
8

> <PUBCHEM_CACTVS_ROTATABLE_BOND>
9

> <PUBCHEM_CACTVS_SUBSKEYS>
AAADceB7PAAAAwgAAAAAAAAAAAAAAAAAAAAwAAAAAAAAAAABAAAAHgAwCAAADBzjmAYCyIPAAgCIAgXQWACCAAAlAAAAiIEITMgLNjLA1NGEcQhn1gHZ2Qf8+CaOAAAAQAQAAAAAAACACAAAAAAAAAAAAA==

> <PUBCHEM_IUPAC_OPENEYE_NAME>
3-acetamido-5-[acetyl(methyl)amino]-2,4,6-triiodo-benzoic acid;calcium;(2R,3R,4R,5S)-6-(methylamino)hexane-1,2,3,4,5-pentol

> <PUBCHEM_IUPAC_CAS_NAME>
3-acetamido-5-[acetyl(methyl)amino]-2,4,6-triiodobenzoic acid;calcium;(2R,3R,4R,5S)-6-(methylamino)hexane-1,2,3,4,5-pentol

> <PUBCHEM_IUPAC_NAME>
3-acetamido-5-[acetyl(methyl)amino]-2,4,6-triiodobenzoic acid;calcium;(2R,3R,4R,5S)-6-(methylamino)hexane-1,2,3,4,5-pentol

> <PUBCHEM_IUPAC_SYSTEMATIC_NAME>
3-acetamido-5-[ethanoyl(methyl)amino]-2,4,6-tris(iodanyl)benzoic acid;calcium;(2R,3R,4R,5S)-6-(methylamino)hexane-1,2,3,4,5-pentol

> <PUBCHEM_IUPAC_TRADITIONAL_NAME>
3-acetamido-5-[acetyl(methyl)amino]-2,4,6-triiodo-benzoic acid;calcium;(2R,3R,4R,5S)-6-(methylamino)hexane-1,2,3,4,5-pentol

> <PUBCHEM_IUPAC_INCHI>
InChI=1S/C12H11I3N2O4.C7H17NO5.Ca/c1-4(18)16-10-7(13)6(12(20)21)8(14)11(9(10)15)17(3)5(2)19;1-8-2-4(10)6(12)7(13)5(11)3-9;/h1-3H3,(H,16,18)(H,20,21);4-13H,2-3H2,1H3;/t;4-,5+,6+,7+;/m.0./s1

> <PUBCHEM_IUPAC_INCHIKEY>
TWYFWSZIVOIODR-BMWGJIJESA-N

> <PUBCHEM_EXACT_MASS>
862.859

> <PUBCHEM_MOLECULAR_FORMULA>
C19H28CaI3N3O9

> <PUBCHEM_MOLECULAR_WEIGHT>
863.236

> <PUBCHEM_OPENEYE_CAN_SMILES>
CC(=O)NC1=C(C(=C(C(=C1I)C(=O)O)I)N(C)C(=O)C)I.CNCC(C(C(C(CO)O)O)O)O.[Ca]

> <PUBCHEM_OPENEYE_ISO_SMILES>
CC(=O)NC1=C(C(=C(C(=C1I)C(=O)O)I)N(C)C(=O)C)I.CNC[C@@H]([C@H]([C@@H]([C@@H](CO)O)O)O)O.[Ca]

> <PUBCHEM_CACTVS_TPSA>
200

> <PUBCHEM_MONOISOTOPIC_WEIGHT>
862.859

> <PUBCHEM_TOTAL_CHARGE>
0

> <PUBCHEM_HEAVY_ATOM_COUNT>
35

> <PUBCHEM_ATOM_DEF_STEREO_COUNT>
4

> <PUBCHEM_ATOM_UDEF_STEREO_COUNT>
0

> <PUBCHEM_BOND_DEF_STEREO_COUNT>
0

> <PUBCHEM_BOND_UDEF_STEREO_COUNT>
0

> <PUBCHEM_ISOTOPIC_ATOM_COUNT>
0

> <PUBCHEM_COMPONENT_COUNT>
3

> <PUBCHEM_CACTVS_TAUTO_COUNT>
3

> <PUBCHEM_COORDINATE_TYPE>
1
5
255

> <PUBCHEM_BONDANNOTATIONS>
24  26  8
24  27  8
25  26  8
25  29  8
27  28  8
28  29  8
17  5  6
18  6  6
19  7  6
20  8  5

$$$$
