159870
  -OEChem-12071809272D

124127  0     1  0  0  0  0  0999 V2000
   15.8563   -3.2060    0.0000 O   0  0  0  0  0  0  0  0  0  0  0  0
   14.9961   -1.7027    0.0000 O   0  0  0  0  0  0  0  0  0  0  0  0
   21.2494   -0.1537    0.0000 C   0  0  3  0  0  0  0  0  0  0  0  0
   21.2494   -1.1537    0.0000 C   0  0  3  0  0  0  0  0  0  0  0  0
   20.3834   -1.6537    0.0000 C   0  0  3  0  0  0  0  0  0  0  0  0
   19.5173   -1.1537    0.0000 C   0  0  3  0  0  0  0  0  0  0  0  0
   22.1956    0.1510    0.0000 C   0  0  3  0  0  0  0  0  0  0  0  0
   20.3834    0.3463    0.0000 C   0  0  0  0  0  0  0  0  0  0  0  0
   18.6073   -1.6606    0.0000 C   0  0  3  0  0  0  0  0  0  0  0  0
   22.1956   -1.4584    0.0000 C   0  0  0  0  0  0  0  0  0  0  0  0
   19.5173   -0.1537    0.0000 C   0  0  0  0  0  0  0  0  0  0  0  0
   22.7792   -0.6537    0.0000 C   0  0  0  0  0  0  0  0  0  0  0  0
   20.3994   -2.6952    0.0000 C   0  0  0  0  0  0  0  0  0  0  0  0
   22.5063    1.1015    0.0000 C   0  0  3  0  0  0  0  0  0  0  0  0
   21.2494    0.8463    0.0000 C   0  0  0  0  0  0  0  0  0  0  0  0
   18.5993   -2.7022    0.0000 C   0  0  0  0  0  0  0  0  0  0  0  0
   17.6805   -1.0965    0.0000 C   0  0  0  0  0  0  0  0  0  0  0  0
   19.5014   -3.2230    0.0000 C   0  0  0  0  0  0  0  0  0  0  0  0
   18.6150   -0.6606    0.0000 C   0  0  0  0  0  0  0  0  0  0  0  0
   17.6639   -3.2519    0.0000 C   0  0  0  0  0  0  0  0  0  0  0  0
   16.7326   -1.6244    0.0000 C   0  0  0  0  0  0  0  0  0  0  0  0
   23.4848    1.3078    0.0000 C   0  0  0  0  0  0  0  0  0  0  0  0
   16.7242   -2.7094    0.0000 C   0  0  3  0  0  0  0  0  0  0  0  0
   21.8384    1.8458    0.0000 C   0  0  0  0  0  0  0  0  0  0  0  0
   23.7954    2.2583    0.0000 C   0  0  0  0  0  0  0  0  0  0  0  0
   24.7739    2.4645    0.0000 C   0  0  0  0  0  0  0  0  0  0  0  0
   25.0846    3.4150    0.0000 C   0  0  0  0  0  0  0  0  0  0  0  0
   14.9922   -2.7027    0.0000 C   0  0  0  0  0  0  0  0  0  0  0  0
   14.1243   -3.1994    0.0000 C   0  0  0  0  0  0  0  0  0  0  0  0
   26.0631    3.6212    0.0000 C   0  0  0  0  0  0  0  0  0  0  0  0
   24.4168    4.1593    0.0000 C   0  0  0  0  0  0  0  0  0  0  0  0
   13.2602   -2.6960    0.0000 C   0  0  0  0  0  0  0  0  0  0  0  0
   12.3922   -3.1927    0.0000 C   0  0  0  0  0  0  0  0  0  0  0  0
   11.5281   -2.6894    0.0000 C   0  0  0  0  0  0  0  0  0  0  0  0
   10.6602   -3.1860    0.0000 C   0  0  0  0  0  0  0  0  0  0  0  0
    9.7961   -2.6827    0.0000 C   0  0  0  0  0  0  0  0  0  0  0  0
    8.9282   -3.1794    0.0000 C   0  0  0  0  0  0  0  0  0  0  0  0
    8.0641   -2.6760    0.0000 C   0  0  0  0  0  0  0  0  0  0  0  0
    7.1961   -3.1727    0.0000 C   0  0  0  0  0  0  0  0  0  0  0  0
    6.3320   -2.6693    0.0000 C   0  0  0  0  0  0  0  0  0  0  0  0
    5.4641   -3.1660    0.0000 C   0  0  0  0  0  0  0  0  0  0  0  0
    4.6000   -2.6627    0.0000 C   0  0  0  0  0  0  0  0  0  0  0  0
    3.7320   -3.1593    0.0000 C   0  0  3  0  0  0  0  0  0  0  0  0
    2.8680   -2.6560    0.0000 C   0  0  0  0  0  0  0  0  0  0  0  0
    3.7282   -4.1593    0.0000 C   0  0  0  0  0  0  0  0  0  0  0  0
    2.0000   -3.1526    0.0000 C   0  0  0  0  0  0  0  0  0  0  0  0
   21.3150   -1.7702    0.0000 H   0  0  0  0  0  0  0  0  0  0  0  0
   20.9227   -1.9596    0.0000 H   0  0  0  0  0  0  0  0  0  0  0  0
   20.0543   -0.8437    0.0000 H   0  0  0  0  0  0  0  0  0  0  0  0
   22.8081    0.2472    0.0000 H   0  0  0  0  0  0  0  0  0  0  0  0
   20.7819    0.8212    0.0000 H   0  0  0  0  0  0  0  0  0  0  0  0
   19.9848    0.8212    0.0000 H   0  0  0  0  0  0  0  0  0  0  0  0
   21.9446   -2.0254    0.0000 H   0  0  0  0  0  0  0  0  0  0  0  0
   22.7330   -1.7677    0.0000 H   0  0  0  0  0  0  0  0  0  0  0  0
   19.3053    0.4289    0.0000 H   0  0  0  0  0  0  0  0  0  0  0  0
   18.9068   -0.2614    0.0000 H   0  0  0  0  0  0  0  0  0  0  0  0
   23.2401   -1.0684    0.0000 H   0  0  0  0  0  0  0  0  0  0  0  0
   23.2401   -0.2390    0.0000 H   0  0  0  0  0  0  0  0  0  0  0  0
   20.6175   -3.2756    0.0000 H   0  0  0  0  0  0  0  0  0  0  0  0
   21.0086   -2.5797    0.0000 H   0  0  0  0  0  0  0  0  0  0  0  0
   21.8996    0.9737    0.0000 H   0  0  0  0  0  0  0  0  0  0  0  0
   21.8694    0.8463    0.0000 H   0  0  0  0  0  0  0  0  0  0  0  0
   21.2494    1.4663    0.0000 H   0  0  0  0  0  0  0  0  0  0  0  0
   20.6294    0.8463    0.0000 H   0  0  0  0  0  0  0  0  0  0  0  0
   18.0887   -0.6298    0.0000 H   0  0  0  0  0  0  0  0  0  0  0  0
   17.2906   -0.6144    0.0000 H   0  0  0  0  0  0  0  0  0  0  0  0
   19.5038   -3.8430    0.0000 H   0  0  0  0  0  0  0  0  0  0  0  0
   19.2350   -0.6654    0.0000 H   0  0  0  0  0  0  0  0  0  0  0  0
   18.6198   -0.0406    0.0000 H   0  0  0  0  0  0  0  0  0  0  0  0
   17.9951   -0.6558    0.0000 H   0  0  0  0  0  0  0  0  0  0  0  0
   17.2666   -3.7279    0.0000 H   0  0  0  0  0  0  0  0  0  0  0  0
   18.0648   -3.7248    0.0000 H   0  0  0  0  0  0  0  0  0  0  0  0
   16.5281   -1.0392    0.0000 H   0  0  0  0  0  0  0  0  0  0  0  0
   16.1210   -1.7258    0.0000 H   0  0  0  0  0  0  0  0  0  0  0  0
   23.5053    0.6881    0.0000 H   0  0  0  0  0  0  0  0  0  0  0  0
   24.0986    1.2204    0.0000 H   0  0  0  0  0  0  0  0  0  0  0  0
   16.1891   -2.3963    0.0000 H   0  0  0  0  0  0  0  0  0  0  0  0
   22.2999    2.2599    0.0000 H   0  0  0  0  0  0  0  0  0  0  0  0
   21.4244    2.3073    0.0000 H   0  0  0  0  0  0  0  0  0  0  0  0
   21.3770    1.4318    0.0000 H   0  0  0  0  0  0  0  0  0  0  0  0
   23.7749    2.8779    0.0000 H   0  0  0  0  0  0  0  0  0  0  0  0
   23.1816    2.3456    0.0000 H   0  0  0  0  0  0  0  0  0  0  0  0
   24.7945    1.8448    0.0000 H   0  0  0  0  0  0  0  0  0  0  0  0
   25.3878    2.3771    0.0000 H   0  0  0  0  0  0  0  0  0  0  0  0
   24.4779    3.2872    0.0000 H   0  0  0  0  0  0  0  0  0  0  0  0
   13.7239   -3.6728    0.0000 H   0  0  0  0  0  0  0  0  0  0  0  0
   14.5210   -3.6759    0.0000 H   0  0  0  0  0  0  0  0  0  0  0  0
   26.1910    3.0146    0.0000 H   0  0  0  0  0  0  0  0  0  0  0  0
   26.6698    3.7491    0.0000 H   0  0  0  0  0  0  0  0  0  0  0  0
   24.8782    4.5734    0.0000 H   0  0  0  0  0  0  0  0  0  0  0  0
   24.0027    4.6208    0.0000 H   0  0  0  0  0  0  0  0  0  0  0  0
   25.9353    4.2279    0.0000 H   0  0  0  0  0  0  0  0  0  0  0  0
   23.9553    3.7452    0.0000 H   0  0  0  0  0  0  0  0  0  0  0  0
   13.6605   -2.2226    0.0000 H   0  0  0  0  0  0  0  0  0  0  0  0
   12.8635   -2.2196    0.0000 H   0  0  0  0  0  0  0  0  0  0  0  0
   11.9919   -3.6661    0.0000 H   0  0  0  0  0  0  0  0  0  0  0  0
   12.7889   -3.6692    0.0000 H   0  0  0  0  0  0  0  0  0  0  0  0
   11.9285   -2.2160    0.0000 H   0  0  0  0  0  0  0  0  0  0  0  0
   11.1314   -2.2129    0.0000 H   0  0  0  0  0  0  0  0  0  0  0  0
   10.2598   -3.6594    0.0000 H   0  0  0  0  0  0  0  0  0  0  0  0
   11.0569   -3.6625    0.0000 H   0  0  0  0  0  0  0  0  0  0  0  0
   10.1965   -2.2093    0.0000 H   0  0  0  0  0  0  0  0  0  0  0  0
    9.3994   -2.2062    0.0000 H   0  0  0  0  0  0  0  0  0  0  0  0
    8.5278   -3.6528    0.0000 H   0  0  0  0  0  0  0  0  0  0  0  0
    9.3248   -3.6558    0.0000 H   0  0  0  0  0  0  0  0  0  0  0  0
    8.4644   -2.2026    0.0000 H   0  0  0  0  0  0  0  0  0  0  0  0
    7.6674   -2.1995    0.0000 H   0  0  0  0  0  0  0  0  0  0  0  0
    6.7958   -3.6461    0.0000 H   0  0  0  0  0  0  0  0  0  0  0  0
    7.5928   -3.6492    0.0000 H   0  0  0  0  0  0  0  0  0  0  0  0
    6.7324   -2.1959    0.0000 H   0  0  0  0  0  0  0  0  0  0  0  0
    5.9353   -2.1929    0.0000 H   0  0  0  0  0  0  0  0  0  0  0  0
    5.0637   -3.6394    0.0000 H   0  0  0  0  0  0  0  0  0  0  0  0
    5.8608   -3.6425    0.0000 H   0  0  0  0  0  0  0  0  0  0  0  0
    5.0003   -2.1892    0.0000 H   0  0  0  0  0  0  0  0  0  0  0  0
    4.2033   -2.1862    0.0000 H   0  0  0  0  0  0  0  0  0  0  0  0
    4.2678   -3.4714    0.0000 H   0  0  0  0  0  0  0  0  0  0  0  0
    3.2683   -2.1826    0.0000 H   0  0  0  0  0  0  0  0  0  0  0  0
    2.4712   -2.1795    0.0000 H   0  0  0  0  0  0  0  0  0  0  0  0
    3.1082   -4.1569    0.0000 H   0  0  0  0  0  0  0  0  0  0  0  0
    3.7258   -4.7793    0.0000 H   0  0  0  0  0  0  0  0  0  0  0  0
    4.3482   -4.1617    0.0000 H   0  0  0  0  0  0  0  0  0  0  0  0
    1.6921   -2.6145    0.0000 H   0  0  0  0  0  0  0  0  0  0  0  0
    1.4619   -3.4606    0.0000 H   0  0  0  0  0  0  0  0  0  0  0  0
    2.3079   -3.6908    0.0000 H   0  0  0  0  0  0  0  0  0  0  0  0
  1 23  1  0  0  0  0
  1 28  1  0  0  0  0
  2 28  2  0  0  0  0
  3  4  1  0  0  0  0
  3  7  1  0  0  0  0
  3  8  1  0  0  0  0
  3 15  1  0  0  0  0
  4  5  1  0  0  0  0
  4 10  1  0  0  0  0
  4 47  1  0  0  0  0
  5  6  1  0  0  0  0
  5 13  1  0  0  0  0
  5 48  1  0  0  0  0
  6  9  1  0  0  0  0
  6 11  1  0  0  0  0
  6 49  1  0  0  0  0
  7 12  1  0  0  0  0
  7 14  1  0  0  0  0
  7 50  1  0  0  0  0
  8 11  1  0  0  0  0
  8 51  1  0  0  0  0
  8 52  1  0  0  0  0
  9 16  1  0  0  0  0
  9 17  1  0  0  0  0
  9 19  1  0  0  0  0
 10 12  1  0  0  0  0
 10 53  1  0  0  0  0
 10 54  1  0  0  0  0
 11 55  1  0  0  0  0
 11 56  1  0  0  0  0
 12 57  1  0  0  0  0
 12 58  1  0  0  0  0
 13 18  1  0  0  0  0
 13 59  1  0  0  0  0
 13 60  1  0  0  0  0
 14 22  1  0  0  0  0
 14 24  1  0  0  0  0
 14 61  1  0  0  0  0
 15 62  1  0  0  0  0
 15 63  1  0  0  0  0
 15 64  1  0  0  0  0
 16 18  2  0  0  0  0
 16 20  1  0  0  0  0
 17 21  1  0  0  0  0
 17 65  1  0  0  0  0
 17 66  1  0  0  0  0
 18 67  1  0  0  0  0
 19 68  1  0  0  0  0
 19 69  1  0  0  0  0
 19 70  1  0  0  0  0
 20 23  1  0  0  0  0
 20 71  1  0  0  0  0
 20 72  1  0  0  0  0
 21 23  1  0  0  0  0
 21 73  1  0  0  0  0
 21 74  1  0  0  0  0
 22 25  1  0  0  0  0
 22 75  1  0  0  0  0
 22 76  1  0  0  0  0
 23 77  1  0  0  0  0
 24 78  1  0  0  0  0
 24 79  1  0  0  0  0
 24 80  1  0  0  0  0
 25 26  1  0  0  0  0
 25 81  1  0  0  0  0
 25 82  1  0  0  0  0
 26 27  1  0  0  0  0
 26 83  1  0  0  0  0
 26 84  1  0  0  0  0
 27 30  1  0  0  0  0
 27 31  1  0  0  0  0
 27 85  1  0  0  0  0
 28 29  1  0  0  0  0
 29 32  1  0  0  0  0
 29 86  1  0  0  0  0
 29 87  1  0  0  0  0
 30 88  1  0  0  0  0
 30 89  1  0  0  0  0
 30 92  1  0  0  0  0
 31 90  1  0  0  0  0
 31 91  1  0  0  0  0
 31 93  1  0  0  0  0
 32 33  1  0  0  0  0
 32 94  1  0  0  0  0
 32 95  1  0  0  0  0
 33 34  1  0  0  0  0
 33 96  1  0  0  0  0
 33 97  1  0  0  0  0
 34 35  1  0  0  0  0
 34 98  1  0  0  0  0
 34 99  1  0  0  0  0
 35 36  1  0  0  0  0
 35100  1  0  0  0  0
 35101  1  0  0  0  0
 36 37  1  0  0  0  0
 36102  1  0  0  0  0
 36103  1  0  0  0  0
 37 38  1  0  0  0  0
 37104  1  0  0  0  0
 37105  1  0  0  0  0
 38 39  1  0  0  0  0
 38106  1  0  0  0  0
 38107  1  0  0  0  0
 39 40  1  0  0  0  0
 39108  1  0  0  0  0
 39109  1  0  0  0  0
 40 41  1  0  0  0  0
 40110  1  0  0  0  0
 40111  1  0  0  0  0
 41 42  1  0  0  0  0
 41112  1  0  0  0  0
 41113  1  0  0  0  0
 42 43  1  0  0  0  0
 42114  1  0  0  0  0
 42115  1  0  0  0  0
 43 44  1  0  0  0  0
 43 45  1  0  0  0  0
 43116  1  0  0  0  0
 44 46  1  0  0  0  0
 44117  1  0  0  0  0
 44118  1  0  0  0  0
 45119  1  0  0  0  0
 45120  1  0  0  0  0
 45121  1  0  0  0  0
 46122  1  0  0  0  0
 46123  1  0  0  0  0
 46124  1  0  0  0  0
M  END
> <PUBCHEM_COMPOUND_CID>
159870

> <PUBCHEM_COMPOUND_CANONICALIZED>
1

> <PUBCHEM_CACTVS_COMPLEXITY>
934

> <PUBCHEM_CACTVS_HBOND_ACCEPTOR>
2

> <PUBCHEM_CACTVS_HBOND_DONOR>
0

> <PUBCHEM_CACTVS_ROTATABLE_BOND>
21

> <PUBCHEM_CACTVS_SUBSKEYS>
AAADcfB8MAAAAAAAAAAAAAAAAAAAAYAAAAAwYIAAAAAAAGCAAAAAGgAAAAAADxSggAICCAAABACIAiDSCAAAAAAgAAAACAEAAAgAABIAAQACAAAEwAAIAAOIyPCPgAAAAAAAAADAAAQAACAAAQAACAAAAA==

> <PUBCHEM_IUPAC_OPENEYE_NAME>
[17-(1,5-dimethylhexyl)-10,13-dimethyl-2,3,4,7,8,9,11,12,14,15,16,17-dodecahydro-1H-cyclopenta[a]phenanthren-3-yl] 14-methylhexadecanoate

> <PUBCHEM_IUPAC_CAS_NAME>
14-methylhexadecanoic acid [10,13-dimethyl-17-(6-methylheptan-2-yl)-2,3,4,7,8,9,11,12,14,15,16,17-dodecahydro-1H-cyclopenta[a]phenanthren-3-yl] ester

> <PUBCHEM_IUPAC_NAME>
[10,13-dimethyl-17-(6-methylheptan-2-yl)-2,3,4,7,8,9,11,12,14,15,16,17-dodecahydro-1H-cyclopenta[a]phenanthren-3-yl] 14-methylhexadecanoate

> <PUBCHEM_IUPAC_SYSTEMATIC_NAME>
[10,13-dimethyl-17-(6-methylheptan-2-yl)-2,3,4,7,8,9,11,12,14,15,16,17-dodecahydro-1H-cyclopenta[a]phenanthren-3-yl] 14-methylhexadecanoate

> <PUBCHEM_IUPAC_TRADITIONAL_NAME>
14-methylpalmitic acid [17-(1,5-dimethylhexyl)-10,13-dimethyl-2,3,4,7,8,9,11,12,14,15,16,17-dodecahydro-1H-cyclopenta[a]phenanthren-3-yl] ester

> <PUBCHEM_IUPAC_INCHI>
InChI=1S/C44H78O2/c1-8-34(4)21-17-15-13-11-9-10-12-14-16-18-23-42(45)46-37-28-30-43(6)36(32-37)24-25-38-40-27-26-39(35(5)22-19-20-33(2)3)44(40,7)31-29-41(38)43/h24,33-35,37-41H,8-23,25-32H2,1-7H3

> <PUBCHEM_IUPAC_INCHIKEY>
ILZPADCYIWUDSX-UHFFFAOYSA-N

> <PUBCHEM_XLOGP3_AA>
16.7

> <PUBCHEM_EXACT_MASS>
638.6

> <PUBCHEM_MOLECULAR_FORMULA>
C44H78O2

> <PUBCHEM_MOLECULAR_WEIGHT>
639.106

> <PUBCHEM_OPENEYE_CAN_SMILES>
CCC(C)CCCCCCCCCCCCC(=O)OC1CCC2(C3CCC4(C(C3CC=C2C1)CCC4C(C)CCCC(C)C)C)C

> <PUBCHEM_OPENEYE_ISO_SMILES>
CCC(C)CCCCCCCCCCCCC(=O)OC1CCC2(C3CCC4(C(C3CC=C2C1)CCC4C(C)CCCC(C)C)C)C

> <PUBCHEM_CACTVS_TPSA>
26.3

> <PUBCHEM_MONOISOTOPIC_WEIGHT>
638.6

> <PUBCHEM_TOTAL_CHARGE>
0

> <PUBCHEM_HEAVY_ATOM_COUNT>
46

> <PUBCHEM_ATOM_DEF_STEREO_COUNT>
0

> <PUBCHEM_ATOM_UDEF_STEREO_COUNT>
9

> <PUBCHEM_BOND_DEF_STEREO_COUNT>
0

> <PUBCHEM_BOND_UDEF_STEREO_COUNT>
0

> <PUBCHEM_ISOTOPIC_ATOM_COUNT>
0

> <PUBCHEM_COMPONENT_COUNT>
1

> <PUBCHEM_CACTVS_TAUTO_COUNT>
1

> <PUBCHEM_COORDINATE_TYPE>
1
5
255

> <PUBCHEM_BONDANNOTATIONS>
23  1  3
14  24  3
3  15  3
4  10  3
43  45  3
5  13  3
6  11  3
7  12  3
9  19  3

$$$$
