90657714
  -OEChem-12071809282D

144150  0     1  0  0  0  0  0999 V2000
    7.4356    0.1984    0.0000 O   0  0  0  0  0  0  0  0  0  0  0  0
    9.1384   -5.9918    0.0000 O   0  0  0  0  0  0  0  0  0  0  0  0
    8.0317    2.6612    0.0000 O   0  0  0  0  0  0  0  0  0  0  0  0
    7.4063   -5.9918    0.0000 O   0  0  0  0  0  0  0  0  0  0  0  0
    7.6680    4.3546    0.0000 O   0  0  0  0  0  0  0  0  0  0  0  0
    9.1384   -7.9918    0.0000 O   0  0  0  0  0  0  0  0  0  0  0  0
    9.9871    3.0811    0.0000 O   0  0  0  0  0  0  0  0  0  0  0  0
    7.4063   -8.9918    0.0000 O   0  0  0  0  0  0  0  0  0  0  0  0
   10.6011    4.9846    0.0000 O   0  0  0  0  0  0  0  0  0  0  0  0
    5.6743   -7.9918    0.0000 O   0  0  0  0  0  0  0  0  0  0  0  0
    9.2596    6.4680    0.0000 O   0  0  0  0  0  0  0  0  0  0  0  0
    6.3265    5.8380    0.0000 O   0  0  0  0  0  0  0  0  0  0  0  0
    4.8082   -6.4918    0.0000 O   0  0  0  0  0  0  0  0  0  0  0  0
    4.6615    6.4731    0.0000 O   0  0  0  0  0  0  0  0  0  0  0  0
    6.7744    7.9670    0.0000 O   0  0  0  0  0  0  0  0  0  0  0  0
    4.8879    9.0508    0.0000 O   0  0  0  0  0  0  0  0  0  0  0  0
    2.6067    6.8471    0.0000 O   0  0  0  0  0  0  0  0  0  0  0  0
   10.0394   -1.2916    0.0000 C   0  0  1  0  0  0  0  0  0  0  0  0
   10.0356   -0.2916    0.0000 C   0  0  1  0  0  0  0  0  0  0  0  0
    9.1753   -1.7949    0.0000 C   0  0  1  0  0  0  0  0  0  0  0  0
    9.1633   -2.8364    0.0000 C   0  0  2  0  0  0  0  0  0  0  0  0
    9.1676    0.2051    0.0000 C   0  0  1  0  0  0  0  0  0  0  0  0
   10.0634   -3.3607    0.0000 C   0  0  1  0  0  0  0  0  0  0  0  0
   10.9514   -1.7949    0.0000 C   0  0  0  0  0  0  0  0  0  0  0  0
    9.3731    1.1777    0.0000 C   0  0  2  0  0  0  0  0  0  0  0  0
    8.3074   -1.2982    0.0000 C   0  0  0  0  0  0  0  0  0  0  0  0
    8.3035   -0.2982    0.0000 C   0  0  1  0  0  0  0  0  0  0  0  0
   10.7700    0.3784    0.0000 C   0  0  0  0  0  0  0  0  0  0  0  0
   10.9634   -2.8364    0.0000 C   0  0  0  0  0  0  0  0  0  0  0  0
   10.0759   -4.4457    0.0000 C   0  0  0  0  0  0  0  0  0  0  0  0
   10.3614    1.2846    0.0000 C   0  0  0  0  0  0  0  0  0  0  0  0
    8.2134   -3.3607    0.0000 C   0  0  0  0  0  0  0  0  0  0  0  0
   11.0236   -1.1141    0.0000 C   0  0  0  0  0  0  0  0  0  0  0  0
   11.0210   -0.4614    0.0000 C   0  0  0  0  0  0  0  0  0  0  0  0
    8.2992   -2.3331    0.0000 C   0  0  0  0  0  0  0  0  0  0  0  0
    9.1384   -4.9918    0.0000 C   0  0  2  0  0  0  0  0  0  0  0  0
    8.7024    1.9194    0.0000 C   0  0  2  0  0  0  0  0  0  0  0  0
    8.2008   -4.4457    0.0000 C   0  0  0  0  0  0  0  0  0  0  0  0
   11.0759   -4.4380    0.0000 C   0  0  0  0  0  0  0  0  0  0  0  0
   10.5826   -5.3078    0.0000 C   0  0  0  0  0  0  0  0  0  0  0  0
    9.4441    2.5901    0.0000 C   0  0  0  0  0  0  0  0  0  0  0  0
    7.9607    1.2487    0.0000 C   0  0  0  0  0  0  0  0  0  0  0  0
   10.3958    2.2832    0.0000 C   0  0  0  0  0  0  0  0  0  0  0  0
    8.2723   -6.4918    0.0000 C   0  0  2  0  0  0  0  0  0  0  0  0
    8.3387    3.6129    0.0000 C   0  0  2  0  0  0  0  0  0  0  0  0
    8.2723   -7.4918    0.0000 C   0  0  1  0  0  0  0  0  0  0  0  0
    9.3164    3.8229    0.0000 C   0  0  1  0  0  0  0  0  0  0  0  0
   11.1375    2.9539    0.0000 C   0  0  0  0  0  0  0  0  0  0  0  0
    7.4063   -7.9918    0.0000 C   0  0  2  0  0  0  0  0  0  0  0  0
    9.6234    4.7746    0.0000 C   0  0  2  0  0  0  0  0  0  0  0  0
    6.5403   -6.4918    0.0000 C   0  0  1  0  0  0  0  0  0  0  0  0
    7.9750    5.3063    0.0000 C   0  0  1  0  0  0  0  0  0  0  0  0
    6.5403   -7.4918    0.0000 C   0  0  1  0  0  0  0  0  0  0  0  0
    8.9527    5.5163    0.0000 C   0  0  1  0  0  0  0  0  0  0  0  0
   12.0892    2.6469    0.0000 C   0  0  0  0  0  0  0  0  0  0  0  0
    7.3042    6.0480    0.0000 C   0  0  0  0  0  0  0  0  0  0  0  0
    5.6743   -5.9918    0.0000 C   0  0  0  0  0  0  0  0  0  0  0  0
   12.8310    3.3176    0.0000 C   0  0  0  0  0  0  0  0  0  0  0  0
   12.2992    1.6692    0.0000 C   0  0  0  0  0  0  0  0  0  0  0  0
    5.6558    6.5798    0.0000 C   0  0  2  0  0  0  0  0  0  0  0  0
    5.8617    7.5583    0.0000 C   0  0  1  0  0  0  0  0  0  0  0  0
    4.9946    8.0565    0.0000 C   0  0  2  0  0  0  0  0  0  0  0  0
    4.2529    7.3858    0.0000 C   0  0  2  0  0  0  0  0  0  0  0  0
    3.2743    7.5916    0.0000 C   0  0  0  0  0  0  0  0  0  0  0  0
    9.9098   -2.2227    0.0000 H   0  0  0  0  0  0  0  0  0  0  0  0
    8.4787    0.7030    0.0000 H   0  0  0  0  0  0  0  0  0  0  0  0
   10.8027   -3.7800    0.0000 H   0  0  0  0  0  0  0  0  0  0  0  0
   11.5634   -1.8939    0.0000 H   0  0  0  0  0  0  0  0  0  0  0  0
   11.1537   -1.2088    0.0000 H   0  0  0  0  0  0  0  0  0  0  0  0
    9.6757    1.9720    0.0000 H   0  0  0  0  0  0  0  0  0  0  0  0
    7.6964   -1.1929    0.0000 H   0  0  0  0  0  0  0  0  0  0  0  0
    8.0976   -1.8816    0.0000 H   0  0  0  0  0  0  0  0  0  0  0  0
    7.7678   -0.6103    0.0000 H   0  0  0  0  0  0  0  0  0  0  0  0
   11.1374   -0.1211    0.0000 H   0  0  0  0  0  0  0  0  0  0  0  0
   11.3053    0.6912    0.0000 H   0  0  0  0  0  0  0  0  0  0  0  0
   11.1792   -3.4177    0.0000 H   0  0  0  0  0  0  0  0  0  0  0  0
   11.5730   -2.7233    0.0000 H   0  0  0  0  0  0  0  0  0  0  0  0
   10.9503    1.4786    0.0000 H   0  0  0  0  0  0  0  0  0  0  0  0
   10.2303    1.8906    0.0000 H   0  0  0  0  0  0  0  0  0  0  0  0
    8.0111   -2.7747    0.0000 H   0  0  0  0  0  0  0  0  0  0  0  0
    7.6013   -3.4598    0.0000 H   0  0  0  0  0  0  0  0  0  0  0  0
   11.1336   -1.7243    0.0000 H   0  0  0  0  0  0  0  0  0  0  0  0
   11.6337   -1.0041    0.0000 H   0  0  0  0  0  0  0  0  0  0  0  0
   10.9135   -0.5039    0.0000 H   0  0  0  0  0  0  0  0  0  0  0  0
   10.9157   -1.0724    0.0000 H   0  0  0  0  0  0  0  0  0  0  0  0
   11.6320   -0.5667    0.0000 H   0  0  0  0  0  0  0  0  0  0  0  0
   11.1264    0.1496    0.0000 H   0  0  0  0  0  0  0  0  0  0  0  0
    8.6113   -1.7974    0.0000 H   0  0  0  0  0  0  0  0  0  0  0  0
    7.7635   -2.0210    0.0000 H   0  0  0  0  0  0  0  0  0  0  0  0
    7.9871   -2.8688    0.0000 H   0  0  0  0  0  0  0  0  0  0  0  0
    9.6759   -5.3007    0.0000 H   0  0  0  0  0  0  0  0  0  0  0  0
    7.5912   -4.3325    0.0000 H   0  0  0  0  0  0  0  0  0  0  0  0
    7.9850   -5.0269    0.0000 H   0  0  0  0  0  0  0  0  0  0  0  0
   10.0480   -5.6219    0.0000 H   0  0  0  0  0  0  0  0  0  0  0  0
   10.8967   -5.8423    0.0000 H   0  0  0  0  0  0  0  0  0  0  0  0
   11.1171   -4.9937    0.0000 H   0  0  0  0  0  0  0  0  0  0  0  0
   11.0807   -5.0579    0.0000 H   0  0  0  0  0  0  0  0  0  0  0  0
   11.6959   -4.4332    0.0000 H   0  0  0  0  0  0  0  0  0  0  0  0
   11.0711   -3.8180    0.0000 H   0  0  0  0  0  0  0  0  0  0  0  0
    6.8998   -0.1136    0.0000 H   0  0  0  0  0  0  0  0  0  0  0  0
    9.7340    3.1382    0.0000 H   0  0  0  0  0  0  0  0  0  0  0  0
    8.9547    2.9708    0.0000 H   0  0  0  0  0  0  0  0  0  0  0  0
    7.5448    1.7086    0.0000 H   0  0  0  0  0  0  0  0  0  0  0  0
    7.5008    0.8329    0.0000 H   0  0  0  0  0  0  0  0  0  0  0  0
    8.3765    0.7889    0.0000 H   0  0  0  0  0  0  0  0  0  0  0  0
   10.1059    1.7351    0.0000 H   0  0  0  0  0  0  0  0  0  0  0  0
   10.8852    1.9025    0.0000 H   0  0  0  0  0  0  0  0  0  0  0  0
    8.2723   -5.8718    0.0000 H   0  0  0  0  0  0  0  0  0  0  0  0
    8.7545    3.1530    0.0000 H   0  0  0  0  0  0  0  0  0  0  0  0
    8.2723   -8.1118    0.0000 H   0  0  0  0  0  0  0  0  0  0  0  0
    9.9226    3.9530    0.0000 H   0  0  0  0  0  0  0  0  0  0  0  0
   11.0073    3.5600    0.0000 H   0  0  0  0  0  0  0  0  0  0  0  0
    6.8694   -8.3018    0.0000 H   0  0  0  0  0  0  0  0  0  0  0  0
    9.8137    5.3646    0.0000 H   0  0  0  0  0  0  0  0  0  0  0  0
    6.5403   -5.8718    0.0000 H   0  0  0  0  0  0  0  0  0  0  0  0
    7.3688    5.1761    0.0000 H   0  0  0  0  0  0  0  0  0  0  0  0
    6.0034   -7.1818    0.0000 H   0  0  0  0  0  0  0  0  0  0  0  0
    8.5368    5.9762    0.0000 H   0  0  0  0  0  0  0  0  0  0  0  0
    9.1384   -8.6118    0.0000 H   0  0  0  0  0  0  0  0  0  0  0  0
   10.5933    3.2113    0.0000 H   0  0  0  0  0  0  0  0  0  0  0  0
    7.8293    6.3777    0.0000 H   0  0  0  0  0  0  0  0  0  0  0  0
    7.0708    6.6224    0.0000 H   0  0  0  0  0  0  0  0  0  0  0  0
    6.0728   -5.5168    0.0000 H   0  0  0  0  0  0  0  0  0  0  0  0
    5.2757   -5.5168    0.0000 H   0  0  0  0  0  0  0  0  0  0  0  0
    6.8694   -9.3018    0.0000 H   0  0  0  0  0  0  0  0  0  0  0  0
   10.7914    5.5746    0.0000 H   0  0  0  0  0  0  0  0  0  0  0  0
   13.2468    2.8577    0.0000 H   0  0  0  0  0  0  0  0  0  0  0  0
   11.6931    1.5390    0.0000 H   0  0  0  0  0  0  0  0  0  0  0  0
   12.4294    1.0630    0.0000 H   0  0  0  0  0  0  0  0  0  0  0  0
   12.9054    1.7994    0.0000 H   0  0  0  0  0  0  0  0  0  0  0  0
   13.2908    3.7334    0.0000 H   0  0  0  0  0  0  0  0  0  0  0  0
   12.4151    3.7774    0.0000 H   0  0  0  0  0  0  0  0  0  0  0  0
    5.6743   -8.6118    0.0000 H   0  0  0  0  0  0  0  0  0  0  0  0
    8.8438    6.9279    0.0000 H   0  0  0  0  0  0  0  0  0  0  0  0
    4.2713   -6.1818    0.0000 H   0  0  0  0  0  0  0  0  0  0  0  0
    5.4349    6.0005    0.0000 H   0  0  0  0  0  0  0  0  0  0  0  0
    6.3443    7.1692    0.0000 H   0  0  0  0  0  0  0  0  0  0  0  0
    5.5138    8.3953    0.0000 H   0  0  0  0  0  0  0  0  0  0  0  0
    3.8637    6.9031    0.0000 H   0  0  0  0  0  0  0  0  0  0  0  0
    6.8378    8.5838    0.0000 H   0  0  0  0  0  0  0  0  0  0  0  0
    3.5053    8.1670    0.0000 H   0  0  0  0  0  0  0  0  0  0  0  0
    2.7478    7.9191    0.0000 H   0  0  0  0  0  0  0  0  0  0  0  0
    4.3210    9.3018    0.0000 H   0  0  0  0  0  0  0  0  0  0  0  0
    2.0000    6.9747    0.0000 H   0  0  0  0  0  0  0  0  0  0  0  0
 27  1  1  1  0  0  0
  1100  1  0  0  0  0
 36  2  1  1  0  0  0
 44  2  1  1  0  0  0
 37  3  1  1  0  0  0
 45  3  1  6  0  0  0
  4 44  1  0  0  0  0
  4 51  1  0  0  0  0
  5 45  1  0  0  0  0
  5 52  1  0  0  0  0
 46  6  1  6  0  0  0
  6119  1  0  0  0  0
 47  7  1  1  0  0  0
  7120  1  0  0  0  0
 49  8  1  1  0  0  0
  8125  1  0  0  0  0
 50  9  1  6  0  0  0
  9126  1  0  0  0  0
 53 10  1  6  0  0  0
 10133  1  0  0  0  0
 54 11  1  1  0  0  0
 11134  1  0  0  0  0
 12 56  1  0  0  0  0
 60 12  1  6  0  0  0
 13 57  1  0  0  0  0
 13135  1  0  0  0  0
 14 60  1  0  0  0  0
 14 63  1  0  0  0  0
 61 15  1  1  0  0  0
 15140  1  0  0  0  0
 62 16  1  6  0  0  0
 16143  1  0  0  0  0
 17 64  1  0  0  0  0
 17144  1  0  0  0  0
 18 19  1  0  0  0  0
 18 20  1  0  0  0  0
 18 24  1  0  0  0  0
 18 33  1  1  0  0  0
 19 22  1  0  0  0  0
 19 28  1  0  0  0  0
 19 34  1  6  0  0  0
 20 21  1  0  0  0  0
 20 26  1  0  0  0  0
 20 65  1  6  0  0  0
 21 23  1  0  0  0  0
 21 32  1  0  0  0  0
 21 35  1  1  0  0  0
 22 25  1  0  0  0  0
 22 27  1  0  0  0  0
 22 66  1  1  0  0  0
 23 29  1  0  0  0  0
 23 30  1  0  0  0  0
 23 67  1  6  0  0  0
 24 29  1  0  0  0  0
 24 68  1  0  0  0  0
 24 69  1  0  0  0  0
 25 31  1  0  0  0  0
 25 37  1  0  0  0  0
 25 70  1  6  0  0  0
 26 27  1  0  0  0  0
 26 71  1  0  0  0  0
 26 72  1  0  0  0  0
 27 73  1  0  0  0  0
 28 31  1  0  0  0  0
 28 74  1  0  0  0  0
 28 75  1  0  0  0  0
 29 76  1  0  0  0  0
 29 77  1  0  0  0  0
 30 36  1  0  0  0  0
 30 39  1  0  0  0  0
 30 40  1  0  0  0  0
 31 78  1  0  0  0  0
 31 79  1  0  0  0  0
 32 38  1  0  0  0  0
 32 80  1  0  0  0  0
 32 81  1  0  0  0  0
 33 82  1  0  0  0  0
 33 83  1  0  0  0  0
 33 84  1  0  0  0  0
 34 85  1  0  0  0  0
 34 86  1  0  0  0  0
 34 87  1  0  0  0  0
 35 88  1  0  0  0  0
 35 89  1  0  0  0  0
 35 90  1  0  0  0  0
 36 38  1  0  0  0  0
 36 91  1  0  0  0  0
 37 41  1  0  0  0  0
 37 42  1  0  0  0  0
 38 92  1  0  0  0  0
 38 93  1  0  0  0  0
 39 97  1  0  0  0  0
 39 98  1  0  0  0  0
 39 99  1  0  0  0  0
 40 94  1  0  0  0  0
 40 95  1  0  0  0  0
 40 96  1  0  0  0  0
 41 43  1  0  0  0  0
 41101  1  0  0  0  0
 41102  1  0  0  0  0
 42103  1  0  0  0  0
 42104  1  0  0  0  0
 42105  1  0  0  0  0
 43 48  1  0  0  0  0
 43106  1  0  0  0  0
 43107  1  0  0  0  0
 44 46  1  0  0  0  0
 44108  1  0  0  0  0
 45 47  1  0  0  0  0
 45109  1  0  0  0  0
 46 49  1  0  0  0  0
 46110  1  0  0  0  0
 47 50  1  0  0  0  0
 47111  1  0  0  0  0
 48 55  2  0  0  0  0
 48112  1  0  0  0  0
 49 53  1  0  0  0  0
 49113  1  0  0  0  0
 50 54  1  0  0  0  0
 50114  1  0  0  0  0
 51 53  1  0  0  0  0
 51 57  1  1  0  0  0
 51115  1  0  0  0  0
 52 54  1  0  0  0  0
 52 56  1  6  0  0  0
 52116  1  0  0  0  0
 53117  1  0  0  0  0
 54118  1  0  0  0  0
 55 58  1  0  0  0  0
 55 59  1  0  0  0  0
 56121  1  0  0  0  0
 56122  1  0  0  0  0
 57123  1  0  0  0  0
 57124  1  0  0  0  0
 58127  1  0  0  0  0
 58131  1  0  0  0  0
 58132  1  0  0  0  0
 59128  1  0  0  0  0
 59129  1  0  0  0  0
 59130  1  0  0  0  0
 60 61  1  0  0  0  0
 60136  1  0  0  0  0
 61 62  1  0  0  0  0
 61137  1  0  0  0  0
 62 63  1  0  0  0  0
 62138  1  0  0  0  0
 63 64  1  1  0  0  0
 63139  1  0  0  0  0
 64141  1  0  0  0  0
 64142  1  0  0  0  0
M  END
> <PUBCHEM_COMPOUND_CID>
90657714

> <PUBCHEM_COMPOUND_CANONICALIZED>
1

> <PUBCHEM_CACTVS_COMPLEXITY>
1630

> <PUBCHEM_CACTVS_HBOND_ACCEPTOR>
17

> <PUBCHEM_CACTVS_HBOND_DONOR>
11

> <PUBCHEM_CACTVS_ROTATABLE_BOND>
13

> <PUBCHEM_CACTVS_SUBSKEYS>
AAADcfB8PgAAAAAAAAAAAAAAAAAAAaIAAAA0aMECAAAAAGDAAAAAGgAACAAAD1SwgAMCCAAABgCAAiBCAAAAAAAgAAAACAAAAAgREAIAAQAiQAAFgAAPAAPA4PwPgAAAAAAAAADAAAYAADAAAQAACAAAAA==

> <PUBCHEM_IUPAC_OPENEYE_NAME>
(2R,3R,4S,5S,6R)-2-[[(3S,5R,8R,9R,10R,12R,13R,14R,17S)-17-[(1S)-1-[(2S,3R,4S,5S,6R)-6-[[(2R,3R,4R,5S)-3,4-dihydroxy-5-(hydroxymethyl)tetrahydrofuran-2-yl]oxymethyl]-3,4,5-trihydroxy-tetrahydropyran-2-yl]oxy-1,5-dimethyl-hex-4-enyl]-12-hydroxy-4,4,8,10,14-pentamethyl-2,3,5,6,7,9,11,12,13,15,16,17-dodecahydro-1H-cyclopenta[a]phenanthren-3-yl]oxy]-6-(hydroxymethyl)tetrahydropyran-3,4,5-triol

> <PUBCHEM_IUPAC_CAS_NAME>
(2R,3R,4S,5S,6R)-2-[[(3S,5R,8R,9R,10R,12R,13R,14R,17S)-17-[(2S)-2-[[(2S,3R,4S,5S,6R)-6-[[(2R,3R,4R,5S)-3,4-dihydroxy-5-(hydroxymethyl)-2-oxolanyl]oxymethyl]-3,4,5-trihydroxy-2-oxanyl]oxy]-6-methylhept-5-en-2-yl]-12-hydroxy-4,4,8,10,14-pentamethyl-2,3,5,6,7,9,11,12,13,15,16,17-dodecahydro-1H-cyclopenta[a]phenanthren-3-yl]oxy]-6-(hydroxymethyl)oxane-3,4,5-triol

> <PUBCHEM_IUPAC_NAME>
(2R,3R,4S,5S,6R)-2-[[(3S,5R,8R,9R,10R,12R,13R,14R,17S)-17-[(2S)-2-[(2S,3R,4S,5S,6R)-6-[[(2R,3R,4R,5S)-3,4-dihydroxy-5-(hydroxymethyl)oxolan-2-yl]oxymethyl]-3,4,5-trihydroxyoxan-2-yl]oxy-6-methylhept-5-en-2-yl]-12-hydroxy-4,4,8,10,14-pentamethyl-2,3,5,6,7,9,11,12,13,15,16,17-dodecahydro-1H-cyclopenta[a]phenanthren-3-yl]oxy]-6-(hydroxymethyl)oxane-3,4,5-triol

> <PUBCHEM_IUPAC_SYSTEMATIC_NAME>
(2R,3S,4S,5R,6R)-2-(hydroxymethyl)-6-[[(3S,5R,8R,9R,10R,12R,13R,14R,17S)-17-[(2S)-2-[(2S,3R,4S,5S,6R)-6-[[(2R,3R,4R,5S)-5-(hydroxymethyl)-3,4-bis(oxidanyl)oxolan-2-yl]oxymethyl]-3,4,5-tris(oxidanyl)oxan-2-yl]oxy-6-methyl-hept-5-en-2-yl]-4,4,8,10,14-pentamethyl-12-oxidanyl-2,3,5,6,7,9,11,12,13,15,16,17-dodecahydro-1H-cyclopenta[a]phenanthren-3-yl]oxy]oxane-3,4,5-triol

> <PUBCHEM_IUPAC_TRADITIONAL_NAME>
(2R,3R,4S,5S,6R)-2-[[(3S,5R,8R,9R,10R,12R,13R,14R,17S)-17-[(1S)-1-[(2S,3R,4S,5S,6R)-6-[[(2R,3R,4R,5S)-3,4-dihydroxy-5-methylol-tetrahydrofuran-2-yl]oxymethyl]-3,4,5-trihydroxy-tetrahydropyran-2-yl]oxy-1,5-dimethyl-hex-4-enyl]-12-hydroxy-4,4,8,10,14-pentamethyl-2,3,5,6,7,9,11,12,13,15,16,17-dodecahydro-1H-cyclopenta[a]phenanthren-3-yl]oxy]-6-methylol-tetrahydropyran-3,4,5-triol

> <PUBCHEM_IUPAC_INCHI>
InChI=1S/C47H80O17/c1-22(2)10-9-14-47(8,64-42-39(58)36(55)34(53)27(62-42)21-59-40-37(56)33(52)26(20-49)60-40)23-11-16-46(7)31(23)24(50)18-29-44(5)15-13-30(43(3,4)28(44)12-17-45(29,46)6)63-41-38(57)35(54)32(51)25(19-48)61-41/h10,23-42,48-58H,9,11-21H2,1-8H3/t23-,24+,25+,26-,27+,28-,29+,30-,31-,32+,33-,34+,35-,36-,37+,38+,39+,40+,41-,42-,44-,45+,46+,47-/m0/s1

> <PUBCHEM_IUPAC_INCHIKEY>
MYBAONSAUGZRAX-UBQYYSLZSA-N

> <PUBCHEM_XLOGP3_AA>
2.5

> <PUBCHEM_EXACT_MASS>
916.54

> <PUBCHEM_MOLECULAR_FORMULA>
C47H80O17

> <PUBCHEM_MOLECULAR_WEIGHT>
917.14

> <PUBCHEM_OPENEYE_CAN_SMILES>
CC(=CCCC(C)(C1CCC2(C1C(CC3C2(CCC4C3(CCC(C4(C)C)OC5C(C(C(C(O5)CO)O)O)O)C)C)O)C)OC6C(C(C(C(O6)COC7C(C(C(O7)CO)O)O)O)O)O)C

> <PUBCHEM_OPENEYE_ISO_SMILES>
CC(=CCC[C@@](C)([C@H]1CC[C@@]2([C@@H]1[C@@H](C[C@H]3[C@]2(CC[C@@H]4[C@@]3(CC[C@@H](C4(C)C)O[C@H]5[C@@H]([C@H]([C@@H]([C@H](O5)CO)O)O)O)C)C)O)C)O[C@H]6[C@@H]([C@H]([C@@H]([C@H](O6)CO[C@H]7[C@@H]([C@H]([C@@H](O7)CO)O)O)O)O)O)C

> <PUBCHEM_CACTVS_TPSA>
278

> <PUBCHEM_MONOISOTOPIC_WEIGHT>
916.54

> <PUBCHEM_TOTAL_CHARGE>
0

> <PUBCHEM_HEAVY_ATOM_COUNT>
64

> <PUBCHEM_ATOM_DEF_STEREO_COUNT>
24

> <PUBCHEM_ATOM_UDEF_STEREO_COUNT>
0

> <PUBCHEM_BOND_DEF_STEREO_COUNT>
0

> <PUBCHEM_BOND_UDEF_STEREO_COUNT>
0

> <PUBCHEM_ISOTOPIC_ATOM_COUNT>
0

> <PUBCHEM_COMPONENT_COUNT>
1

> <PUBCHEM_CACTVS_TAUTO_COUNT>
1

> <PUBCHEM_COORDINATE_TYPE>
1
5
255

> <PUBCHEM_BONDANNOTATIONS>
27  1  5
53  10  6
54  11  5
60  12  6
61  15  5
62  16  6
18  33  5
19  34  6
36  2  5
44  2  5
20  65  6
21  35  5
22  66  5
23  67  6
25  70  6
37  3  5
45  3  6
51  57  5
52  56  6
46  6  6
63  64  5
47  7  5
49  8  5
50  9  6

$$$$
