101945296
  -OEChem-12071809302D

153159  0     1  0  0  0  0  0999 V2000
    6.3594    2.8854    0.0000 O   0  0  0  0  0  0  0  0  0  0  0  0
    8.0622   -3.3048    0.0000 O   0  0  0  0  0  0  0  0  0  0  0  0
    6.9555    5.3481    0.0000 O   0  0  0  0  0  0  0  0  0  0  0  0
    6.3301   -3.3048    0.0000 O   0  0  0  0  0  0  0  0  0  0  0  0
    6.5918    7.0415    0.0000 O   0  0  0  0  0  0  0  0  0  0  0  0
    8.0622   -5.3048    0.0000 O   0  0  0  0  0  0  0  0  0  0  0  0
    8.9109    5.7681    0.0000 O   0  0  0  0  0  0  0  0  0  0  0  0
    6.3301   -6.3048    0.0000 O   0  0  0  0  0  0  0  0  0  0  0  0
    9.5249    7.6715    0.0000 O   0  0  0  0  0  0  0  0  0  0  0  0
    4.5981   -5.3048    0.0000 O   0  0  0  0  0  0  0  0  0  0  0  0
    8.1835    9.1550    0.0000 O   0  0  0  0  0  0  0  0  0  0  0  0
    3.7320   -3.8048    0.0000 O   0  0  0  0  0  0  0  0  0  0  0  0
    7.1962   -6.8048    0.0000 O   0  0  0  0  0  0  0  0  0  0  0  0
    5.2504    8.5250    0.0000 O   0  0  0  0  0  0  0  0  0  0  0  0
    9.7942   -6.3048    0.0000 O   0  0  0  0  0  0  0  0  0  0  0  0
    9.7942   -8.3048    0.0000 O   0  0  0  0  0  0  0  0  0  0  0  0
    8.0622   -9.3048    0.0000 O   0  0  0  0  0  0  0  0  0  0  0  0
    2.8660   -2.3048    0.0000 O   0  0  0  0  0  0  0  0  0  0  0  0
    6.3301   -9.3048    0.0000 O   0  0  0  0  0  0  0  0  0  0  0  0
    8.9632    1.3954    0.0000 C   0  0  1  0  0  0  0  0  0  0  0  0
    8.9594    2.3954    0.0000 C   0  0  1  0  0  0  0  0  0  0  0  0
    8.0992    0.8921    0.0000 C   0  0  1  0  0  0  0  0  0  0  0  0
    8.0871   -0.1495    0.0000 C   0  0  2  0  0  0  0  0  0  0  0  0
    8.0914    2.8920    0.0000 C   0  0  1  0  0  0  0  0  0  0  0  0
    8.9872   -0.6738    0.0000 C   0  0  1  0  0  0  0  0  0  0  0  0
    9.8752    0.8921    0.0000 C   0  0  0  0  0  0  0  0  0  0  0  0
    8.2969    3.8647    0.0000 C   0  0  2  0  0  0  0  0  0  0  0  0
    7.2312    1.3887    0.0000 C   0  0  0  0  0  0  0  0  0  0  0  0
    7.2274    2.3887    0.0000 C   0  0  1  0  0  0  0  0  0  0  0  0
    9.6938    3.0653    0.0000 C   0  0  0  0  0  0  0  0  0  0  0  0
    9.8872   -0.1495    0.0000 C   0  0  0  0  0  0  0  0  0  0  0  0
    8.9997   -1.7587    0.0000 C   0  0  0  0  0  0  0  0  0  0  0  0
    9.2852    3.9715    0.0000 C   0  0  0  0  0  0  0  0  0  0  0  0
    7.1372   -0.6738    0.0000 C   0  0  0  0  0  0  0  0  0  0  0  0
    9.9474    1.5728    0.0000 C   0  0  0  0  0  0  0  0  0  0  0  0
    9.9448    2.2255    0.0000 C   0  0  0  0  0  0  0  0  0  0  0  0
    7.2230    0.3538    0.0000 C   0  0  0  0  0  0  0  0  0  0  0  0
    8.0622   -2.3048    0.0000 C   0  0  2  0  0  0  0  0  0  0  0  0
    7.6262    4.6064    0.0000 C   0  0  2  0  0  0  0  0  0  0  0  0
    7.1246   -1.7587    0.0000 C   0  0  0  0  0  0  0  0  0  0  0  0
    9.9997   -1.7510    0.0000 C   0  0  0  0  0  0  0  0  0  0  0  0
    9.5064   -2.6208    0.0000 C   0  0  0  0  0  0  0  0  0  0  0  0
    8.3679    5.2771    0.0000 C   0  0  0  0  0  0  0  0  0  0  0  0
    6.8845    3.9357    0.0000 C   0  0  0  0  0  0  0  0  0  0  0  0
    9.3196    4.9701    0.0000 C   0  0  0  0  0  0  0  0  0  0  0  0
    7.1962   -3.8048    0.0000 C   0  0  2  0  0  0  0  0  0  0  0  0
    7.2625    6.2998    0.0000 C   0  0  2  0  0  0  0  0  0  0  0  0
    7.1962   -4.8048    0.0000 C   0  0  1  0  0  0  0  0  0  0  0  0
    8.2402    6.5098    0.0000 C   0  0  1  0  0  0  0  0  0  0  0  0
   10.0613    5.6408    0.0000 C   0  0  0  0  0  0  0  0  0  0  0  0
    6.3301   -5.3048    0.0000 C   0  0  2  0  0  0  0  0  0  0  0  0
    8.5472    7.4615    0.0000 C   0  0  2  0  0  0  0  0  0  0  0  0
    5.4641   -3.8048    0.0000 C   0  0  1  0  0  0  0  0  0  0  0  0
    6.8988    7.9932    0.0000 C   0  0  1  0  0  0  0  0  0  0  0  0
    5.4641   -4.8048    0.0000 C   0  0  1  0  0  0  0  0  0  0  0  0
    7.8765    8.2032    0.0000 C   0  0  1  0  0  0  0  0  0  0  0  0
   11.0131    5.3338    0.0000 C   0  0  0  0  0  0  0  0  0  0  0  0
    4.5981   -3.3048    0.0000 C   0  0  0  0  0  0  0  0  0  0  0  0
    6.2281    8.7350    0.0000 C   0  0  0  0  0  0  0  0  0  0  0  0
    8.0622   -6.3048    0.0000 C   0  0  2  0  0  0  0  0  0  0  0  0
   11.7548    6.0045    0.0000 C   0  0  0  0  0  0  0  0  0  0  0  0
   11.2230    4.3561    0.0000 C   0  0  0  0  0  0  0  0  0  0  0  0
    8.9282   -6.8048    0.0000 C   0  0  1  0  0  0  0  0  0  0  0  0
    8.9282   -7.8048    0.0000 C   0  0  2  0  0  0  0  0  0  0  0  0
    7.1962   -7.8048    0.0000 C   0  0  1  0  0  0  0  0  0  0  0  0
    8.0622   -8.3048    0.0000 C   0  0  1  0  0  0  0  0  0  0  0  0
    2.8660   -3.3048    0.0000 C   0  0  0  0  0  0  0  0  0  0  0  0
    6.3301   -8.3048    0.0000 C   0  0  0  0  0  0  0  0  0  0  0  0
    2.0000   -3.8048    0.0000 C   0  0  0  0  0  0  0  0  0  0  0  0
    8.8336    0.4642    0.0000 H   0  0  0  0  0  0  0  0  0  0  0  0
    7.4025    3.3899    0.0000 H   0  0  0  0  0  0  0  0  0  0  0  0
    9.7265   -1.0931    0.0000 H   0  0  0  0  0  0  0  0  0  0  0  0
   10.4872    0.7930    0.0000 H   0  0  0  0  0  0  0  0  0  0  0  0
   10.0775    1.4781    0.0000 H   0  0  0  0  0  0  0  0  0  0  0  0
    8.5995    4.6590    0.0000 H   0  0  0  0  0  0  0  0  0  0  0  0
    6.6202    1.4940    0.0000 H   0  0  0  0  0  0  0  0  0  0  0  0
    7.0214    0.8053    0.0000 H   0  0  0  0  0  0  0  0  0  0  0  0
    7.2250    3.0087    0.0000 H   0  0  0  0  0  0  0  0  0  0  0  0
   10.0612    2.5659    0.0000 H   0  0  0  0  0  0  0  0  0  0  0  0
   10.2291    3.3782    0.0000 H   0  0  0  0  0  0  0  0  0  0  0  0
   10.1030   -0.7307    0.0000 H   0  0  0  0  0  0  0  0  0  0  0  0
   10.4968   -0.0363    0.0000 H   0  0  0  0  0  0  0  0  0  0  0  0
    9.8741    4.1656    0.0000 H   0  0  0  0  0  0  0  0  0  0  0  0
    9.1542    4.5775    0.0000 H   0  0  0  0  0  0  0  0  0  0  0  0
    6.9349   -0.0877    0.0000 H   0  0  0  0  0  0  0  0  0  0  0  0
    6.5252   -0.7728    0.0000 H   0  0  0  0  0  0  0  0  0  0  0  0
   10.0574    0.9627    0.0000 H   0  0  0  0  0  0  0  0  0  0  0  0
   10.5575    1.6829    0.0000 H   0  0  0  0  0  0  0  0  0  0  0  0
    9.8374    2.1830    0.0000 H   0  0  0  0  0  0  0  0  0  0  0  0
    9.8395    1.6146    0.0000 H   0  0  0  0  0  0  0  0  0  0  0  0
   10.5558    2.1202    0.0000 H   0  0  0  0  0  0  0  0  0  0  0  0
   10.0502    2.8365    0.0000 H   0  0  0  0  0  0  0  0  0  0  0  0
    7.5351    0.8896    0.0000 H   0  0  0  0  0  0  0  0  0  0  0  0
    6.6873    0.6659    0.0000 H   0  0  0  0  0  0  0  0  0  0  0  0
    6.9109   -0.1819    0.0000 H   0  0  0  0  0  0  0  0  0  0  0  0
    7.5246   -2.6138    0.0000 H   0  0  0  0  0  0  0  0  0  0  0  0
    6.5151   -1.6456    0.0000 H   0  0  0  0  0  0  0  0  0  0  0  0
    6.9088   -2.3399    0.0000 H   0  0  0  0  0  0  0  0  0  0  0  0
    8.9718   -2.9350    0.0000 H   0  0  0  0  0  0  0  0  0  0  0  0
    9.8205   -3.1554    0.0000 H   0  0  0  0  0  0  0  0  0  0  0  0
   10.0409   -2.3067    0.0000 H   0  0  0  0  0  0  0  0  0  0  0  0
   10.0045   -2.3710    0.0000 H   0  0  0  0  0  0  0  0  0  0  0  0
   10.6197   -1.7462    0.0000 H   0  0  0  0  0  0  0  0  0  0  0  0
    9.9949   -1.1310    0.0000 H   0  0  0  0  0  0  0  0  0  0  0  0
    5.8237    2.5733    0.0000 H   0  0  0  0  0  0  0  0  0  0  0  0
    8.6578    5.8251    0.0000 H   0  0  0  0  0  0  0  0  0  0  0  0
    7.8785    5.6578    0.0000 H   0  0  0  0  0  0  0  0  0  0  0  0
    6.4686    4.3956    0.0000 H   0  0  0  0  0  0  0  0  0  0  0  0
    6.4246    3.5198    0.0000 H   0  0  0  0  0  0  0  0  0  0  0  0
    7.3003    3.4758    0.0000 H   0  0  0  0  0  0  0  0  0  0  0  0
    9.0297    4.4221    0.0000 H   0  0  0  0  0  0  0  0  0  0  0  0
    9.8090    4.5894    0.0000 H   0  0  0  0  0  0  0  0  0  0  0  0
    7.7331   -4.1148    0.0000 H   0  0  0  0  0  0  0  0  0  0  0  0
    7.6783    5.8400    0.0000 H   0  0  0  0  0  0  0  0  0  0  0  0
    7.1962   -5.4248    0.0000 H   0  0  0  0  0  0  0  0  0  0  0  0
    8.8464    6.6400    0.0000 H   0  0  0  0  0  0  0  0  0  0  0  0
    9.9312    6.2470    0.0000 H   0  0  0  0  0  0  0  0  0  0  0  0
    5.7932   -5.6148    0.0000 H   0  0  0  0  0  0  0  0  0  0  0  0
    8.7375    8.0516    0.0000 H   0  0  0  0  0  0  0  0  0  0  0  0
    5.4641   -3.1848    0.0000 H   0  0  0  0  0  0  0  0  0  0  0  0
    6.2926    7.8631    0.0000 H   0  0  0  0  0  0  0  0  0  0  0  0
    4.9272   -4.4948    0.0000 H   0  0  0  0  0  0  0  0  0  0  0  0
    7.4606    8.6631    0.0000 H   0  0  0  0  0  0  0  0  0  0  0  0
    9.5171    5.8983    0.0000 H   0  0  0  0  0  0  0  0  0  0  0  0
    4.9966   -2.8299    0.0000 H   0  0  0  0  0  0  0  0  0  0  0  0
    4.1996   -2.8299    0.0000 H   0  0  0  0  0  0  0  0  0  0  0  0
    6.7532    9.0646    0.0000 H   0  0  0  0  0  0  0  0  0  0  0  0
    5.9946    9.3093    0.0000 H   0  0  0  0  0  0  0  0  0  0  0  0
    7.5252   -5.9948    0.0000 H   0  0  0  0  0  0  0  0  0  0  0  0
    5.7932   -6.6148    0.0000 H   0  0  0  0  0  0  0  0  0  0  0  0
    9.7152    8.2616    0.0000 H   0  0  0  0  0  0  0  0  0  0  0  0
   10.6169    4.2259    0.0000 H   0  0  0  0  0  0  0  0  0  0  0  0
   11.3532    3.7499    0.0000 H   0  0  0  0  0  0  0  0  0  0  0  0
   12.1706    5.5446    0.0000 H   0  0  0  0  0  0  0  0  0  0  0  0
   11.8292    4.4863    0.0000 H   0  0  0  0  0  0  0  0  0  0  0  0
   12.2146    6.4204    0.0000 H   0  0  0  0  0  0  0  0  0  0  0  0
   11.3389    6.4644    0.0000 H   0  0  0  0  0  0  0  0  0  0  0  0
    4.5981   -5.9248    0.0000 H   0  0  0  0  0  0  0  0  0  0  0  0
    7.7676    9.6148    0.0000 H   0  0  0  0  0  0  0  0  0  0  0  0
    9.4651   -7.1148    0.0000 H   0  0  0  0  0  0  0  0  0  0  0  0
    4.8345    8.9848    0.0000 H   0  0  0  0  0  0  0  0  0  0  0  0
    8.9282   -8.4248    0.0000 H   0  0  0  0  0  0  0  0  0  0  0  0
    6.6592   -7.4948    0.0000 H   0  0  0  0  0  0  0  0  0  0  0  0
    7.5252   -8.6148    0.0000 H   0  0  0  0  0  0  0  0  0  0  0  0
    9.7942   -5.6848    0.0000 H   0  0  0  0  0  0  0  0  0  0  0  0
    6.1181   -7.7222    0.0000 H   0  0  0  0  0  0  0  0  0  0  0  0
    5.7196   -8.4125    0.0000 H   0  0  0  0  0  0  0  0  0  0  0  0
   10.3312   -7.9948    0.0000 H   0  0  0  0  0  0  0  0  0  0  0  0
    8.5991   -9.6148    0.0000 H   0  0  0  0  0  0  0  0  0  0  0  0
    1.6900   -3.2679    0.0000 H   0  0  0  0  0  0  0  0  0  0  0  0
    1.4631   -4.1148    0.0000 H   0  0  0  0  0  0  0  0  0  0  0  0
    2.3100   -4.3418    0.0000 H   0  0  0  0  0  0  0  0  0  0  0  0
    6.8671   -9.6148    0.0000 H   0  0  0  0  0  0  0  0  0  0  0  0
 29  1  1  1  0  0  0
  1105  1  0  0  0  0
 38  2  1  1  0  0  0
 46  2  1  1  0  0  0
 39  3  1  1  0  0  0
 47  3  1  6  0  0  0
  4 46  1  0  0  0  0
  4 53  1  0  0  0  0
  5 47  1  0  0  0  0
  5 54  1  0  0  0  0
 48  6  1  6  0  0  0
 60  6  1  1  0  0  0
 49  7  1  1  0  0  0
  7124  1  0  0  0  0
 51  8  1  1  0  0  0
  8130  1  0  0  0  0
 52  9  1  6  0  0  0
  9131  1  0  0  0  0
 55 10  1  6  0  0  0
 10138  1  0  0  0  0
 56 11  1  1  0  0  0
 11139  1  0  0  0  0
 12 58  1  0  0  0  0
 12 67  1  0  0  0  0
 13 60  1  0  0  0  0
 13 65  1  0  0  0  0
 14 59  1  0  0  0  0
 14141  1  0  0  0  0
 63 15  1  6  0  0  0
 15145  1  0  0  0  0
 64 16  1  1  0  0  0
 16148  1  0  0  0  0
 66 17  1  6  0  0  0
 17149  1  0  0  0  0
 18 67  2  0  0  0  0
 19 68  1  0  0  0  0
 19153  1  0  0  0  0
 20 21  1  0  0  0  0
 20 22  1  0  0  0  0
 20 26  1  0  0  0  0
 20 35  1  1  0  0  0
 21 24  1  0  0  0  0
 21 30  1  0  0  0  0
 21 36  1  6  0  0  0
 22 23  1  0  0  0  0
 22 28  1  0  0  0  0
 22 70  1  6  0  0  0
 23 25  1  0  0  0  0
 23 34  1  0  0  0  0
 23 37  1  1  0  0  0
 24 27  1  0  0  0  0
 24 29  1  0  0  0  0
 24 71  1  1  0  0  0
 25 31  1  0  0  0  0
 25 32  1  0  0  0  0
 25 72  1  6  0  0  0
 26 31  1  0  0  0  0
 26 73  1  0  0  0  0
 26 74  1  0  0  0  0
 27 33  1  0  0  0  0
 27 39  1  0  0  0  0
 27 75  1  6  0  0  0
 28 29  1  0  0  0  0
 28 76  1  0  0  0  0
 28 77  1  0  0  0  0
 29 78  1  0  0  0  0
 30 33  1  0  0  0  0
 30 79  1  0  0  0  0
 30 80  1  0  0  0  0
 31 81  1  0  0  0  0
 31 82  1  0  0  0  0
 32 38  1  0  0  0  0
 32 41  1  0  0  0  0
 32 42  1  0  0  0  0
 33 83  1  0  0  0  0
 33 84  1  0  0  0  0
 34 40  1  0  0  0  0
 34 85  1  0  0  0  0
 34 86  1  0  0  0  0
 35 87  1  0  0  0  0
 35 88  1  0  0  0  0
 35 89  1  0  0  0  0
 36 90  1  0  0  0  0
 36 91  1  0  0  0  0
 36 92  1  0  0  0  0
 37 93  1  0  0  0  0
 37 94  1  0  0  0  0
 37 95  1  0  0  0  0
 38 40  1  0  0  0  0
 38 96  1  0  0  0  0
 39 43  1  0  0  0  0
 39 44  1  0  0  0  0
 40 97  1  0  0  0  0
 40 98  1  0  0  0  0
 41102  1  0  0  0  0
 41103  1  0  0  0  0
 41104  1  0  0  0  0
 42 99  1  0  0  0  0
 42100  1  0  0  0  0
 42101  1  0  0  0  0
 43 45  1  0  0  0  0
 43106  1  0  0  0  0
 43107  1  0  0  0  0
 44108  1  0  0  0  0
 44109  1  0  0  0  0
 44110  1  0  0  0  0
 45 50  1  0  0  0  0
 45111  1  0  0  0  0
 45112  1  0  0  0  0
 46 48  1  0  0  0  0
 46113  1  0  0  0  0
 47 49  1  0  0  0  0
 47114  1  0  0  0  0
 48 51  1  0  0  0  0
 48115  1  0  0  0  0
 49 52  1  0  0  0  0
 49116  1  0  0  0  0
 50 57  2  0  0  0  0
 50117  1  0  0  0  0
 51 55  1  0  0  0  0
 51118  1  0  0  0  0
 52 56  1  0  0  0  0
 52119  1  0  0  0  0
 53 55  1  0  0  0  0
 53 58  1  1  0  0  0
 53120  1  0  0  0  0
 54 56  1  0  0  0  0
 54 59  1  6  0  0  0
 54121  1  0  0  0  0
 55122  1  0  0  0  0
 56123  1  0  0  0  0
 57 61  1  0  0  0  0
 57 62  1  0  0  0  0
 58125  1  0  0  0  0
 58126  1  0  0  0  0
 59127  1  0  0  0  0
 59128  1  0  0  0  0
 60 63  1  0  0  0  0
 60129  1  0  0  0  0
 61134  1  0  0  0  0
 61136  1  0  0  0  0
 61137  1  0  0  0  0
 62132  1  0  0  0  0
 62133  1  0  0  0  0
 62135  1  0  0  0  0
 63 64  1  0  0  0  0
 63140  1  0  0  0  0
 64 66  1  0  0  0  0
 64142  1  0  0  0  0
 65 66  1  0  0  0  0
 65 68  1  1  0  0  0
 65143  1  0  0  0  0
 66144  1  0  0  0  0
 67 69  1  0  0  0  0
 68146  1  0  0  0  0
 68147  1  0  0  0  0
 69150  1  0  0  0  0
 69151  1  0  0  0  0
 69152  1  0  0  0  0
M  END
> <PUBCHEM_COMPOUND_CID>
101945296

> <PUBCHEM_COMPOUND_CANONICALIZED>
1

> <PUBCHEM_CACTVS_COMPLEXITY>
1800

> <PUBCHEM_CACTVS_HBOND_ACCEPTOR>
19

> <PUBCHEM_CACTVS_HBOND_DONOR>
11

> <PUBCHEM_CACTVS_ROTATABLE_BOND>
15

> <PUBCHEM_CACTVS_SUBSKEYS>
AAADcfB8PgAAAAAAAAAAAAAAAAAAAYAAAAA0aNECAAAAAGDAAAAAGgAACAAAD1SwgAMCCAAABgCIAiDSCAAAAAAgAAAACAAAAAgREAIAAQAiQAAFgAAPAAPA4PwPgAAAAAAAAADAAAYAADAAAQAACAAAAA==

> <PUBCHEM_IUPAC_OPENEYE_NAME>
[(2R,3S,4S,5R,6R)-6-[[(3S,5R,8R,9R,10R,12R,13R,14R,17S)-17-[(1S)-1,5-dimethyl-1-[(2S,3R,4S,5S,6R)-3,4,5-trihydroxy-6-(hydroxymethyl)tetrahydropyran-2-yl]oxy-hex-4-enyl]-12-hydroxy-4,4,8,10,14-pentamethyl-2,3,5,6,7,9,11,12,13,15,16,17-dodecahydro-1H-cyclopenta[a]phenanthren-3-yl]oxy]-3,4-dihydroxy-5-[(2S,3R,4S,5S,6R)-3,4,5-trihydroxy-6-(hydroxymethyl)tetrahydropyran-2-yl]oxy-tetrahydropyran-2-yl]methyl acetate

> <PUBCHEM_IUPAC_CAS_NAME>
acetic acid [(2R,3S,4S,5R,6R)-3,4-dihydroxy-6-[[(3S,5R,8R,9R,10R,12R,13R,14R,17S)-12-hydroxy-4,4,8,10,14-pentamethyl-17-[(2S)-6-methyl-2-[[(2S,3R,4S,5S,6R)-3,4,5-trihydroxy-6-(hydroxymethyl)-2-oxanyl]oxy]hept-5-en-2-yl]-2,3,5,6,7,9,11,12,13,15,16,17-dodecahydro-1H-cyclopenta[a]phenanthren-3-yl]oxy]-5-[[(2S,3R,4S,5S,6R)-3,4,5-trihydroxy-6-(hydroxymethyl)-2-oxanyl]oxy]-2-oxanyl]methyl ester

> <PUBCHEM_IUPAC_NAME>
[(2R,3S,4S,5R,6R)-3,4-dihydroxy-6-[[(3S,5R,8R,9R,10R,12R,13R,14R,17S)-12-hydroxy-4,4,8,10,14-pentamethyl-17-[(2S)-6-methyl-2-[(2S,3R,4S,5S,6R)-3,4,5-trihydroxy-6-(hydroxymethyl)oxan-2-yl]oxyhept-5-en-2-yl]-2,3,5,6,7,9,11,12,13,15,16,17-dodecahydro-1H-cyclopenta[a]phenanthren-3-yl]oxy]-5-[(2S,3R,4S,5S,6R)-3,4,5-trihydroxy-6-(hydroxymethyl)oxan-2-yl]oxyoxan-2-yl]methyl acetate

> <PUBCHEM_IUPAC_SYSTEMATIC_NAME>
[(2R,3S,4S,5R,6R)-5-[(2S,3R,4S,5S,6R)-6-(hydroxymethyl)-3,4,5-tris(oxidanyl)oxan-2-yl]oxy-6-[[(3S,5R,8R,9R,10R,12R,13R,14R,17S)-17-[(2S)-2-[(2S,3R,4S,5S,6R)-6-(hydroxymethyl)-3,4,5-tris(oxidanyl)oxan-2-yl]oxy-6-methyl-hept-5-en-2-yl]-4,4,8,10,14-pentamethyl-12-oxidanyl-2,3,5,6,7,9,11,12,13,15,16,17-dodecahydro-1H-cyclopenta[a]phenanthren-3-yl]oxy]-3,4-bis(oxidanyl)oxan-2-yl]methyl ethanoate

> <PUBCHEM_IUPAC_TRADITIONAL_NAME>
acetic acid [(2R,3S,4S,5R,6R)-6-[[(3S,5R,8R,9R,10R,12R,13R,14R,17S)-17-[(1S)-1,5-dimethyl-1-[(2S,3R,4S,5S,6R)-3,4,5-trihydroxy-6-methylol-tetrahydropyran-2-yl]oxy-hex-4-enyl]-12-hydroxy-4,4,8,10,14-pentamethyl-2,3,5,6,7,9,11,12,13,15,16,17-dodecahydro-1H-cyclopenta[a]phenanthren-3-yl]oxy]-3,4-dihydroxy-5-[(2S,3R,4S,5S,6R)-3,4,5-trihydroxy-6-methylol-tetrahydropyran-2-yl]oxy-tetrahydropyran-2-yl]methyl ester

> <PUBCHEM_IUPAC_INCHI>
InChI=1S/C50H84O19/c1-23(2)11-10-15-50(9,69-44-41(62)38(59)35(56)28(21-52)65-44)25-12-17-49(8)33(25)26(54)19-31-47(6)16-14-32(46(4,5)30(47)13-18-48(31,49)7)67-45-42(39(60)36(57)29(66-45)22-63-24(3)53)68-43-40(61)37(58)34(55)27(20-51)64-43/h11,25-45,51-52,54-62H,10,12-22H2,1-9H3/t25-,26+,27+,28+,29+,30-,31+,32-,33-,34+,35+,36+,37-,38-,39-,40+,41+,42+,43-,44-,45-,47-,48+,49+,50-/m0/s1

> <PUBCHEM_IUPAC_INCHIKEY>
PXHNTRFQGHWVGX-ZQQZZLNPSA-N

> <PUBCHEM_XLOGP3_AA>
2.4

> <PUBCHEM_EXACT_MASS>
988.561

> <PUBCHEM_MOLECULAR_FORMULA>
C50H84O19

> <PUBCHEM_MOLECULAR_WEIGHT>
989.203

> <PUBCHEM_OPENEYE_CAN_SMILES>
CC(=CCCC(C)(C1CCC2(C1C(CC3C2(CCC4C3(CCC(C4(C)C)OC5C(C(C(C(O5)COC(=O)C)O)O)OC6C(C(C(C(O6)CO)O)O)O)C)C)O)C)OC7C(C(C(C(O7)CO)O)O)O)C

> <PUBCHEM_OPENEYE_ISO_SMILES>
CC(=CCC[C@@](C)([C@H]1CC[C@@]2([C@@H]1[C@@H](C[C@H]3[C@]2(CC[C@@H]4[C@@]3(CC[C@@H](C4(C)C)O[C@H]5[C@@H]([C@H]([C@@H]([C@H](O5)COC(=O)C)O)O)O[C@H]6[C@@H]([C@H]([C@@H]([C@H](O6)CO)O)O)O)C)C)O)C)O[C@H]7[C@@H]([C@H]([C@@H]([C@H](O7)CO)O)O)O)C

> <PUBCHEM_CACTVS_TPSA>
304

> <PUBCHEM_MONOISOTOPIC_WEIGHT>
988.561

> <PUBCHEM_TOTAL_CHARGE>
0

> <PUBCHEM_HEAVY_ATOM_COUNT>
69

> <PUBCHEM_ATOM_DEF_STEREO_COUNT>
25

> <PUBCHEM_ATOM_UDEF_STEREO_COUNT>
0

> <PUBCHEM_BOND_DEF_STEREO_COUNT>
0

> <PUBCHEM_BOND_UDEF_STEREO_COUNT>
0

> <PUBCHEM_ISOTOPIC_ATOM_COUNT>
0

> <PUBCHEM_COMPONENT_COUNT>
1

> <PUBCHEM_CACTVS_TAUTO_COUNT>
2

> <PUBCHEM_COORDINATE_TYPE>
1
5
255

> <PUBCHEM_BONDANNOTATIONS>
29  1  5
55  10  6
56  11  5
63  15  6
64  16  5
66  17  6
38  2  5
46  2  5
20  35  5
21  36  6
22  70  6
23  37  5
24  71  5
25  72  6
27  75  6
39  3  5
47  3  6
53  58  5
54  59  6
48  6  6
60  6  5
65  68  5
49  7  5
51  8  5
52  9  6

$$$$
