23304557
  -OEChem-12071809192D

 97103  0     1  0  0  0  0  0999 V2000
    9.5512   -0.5315    0.0000 O   0  0  0  0  0  0  0  0  0  0  0  0
    6.4298    6.2425    0.0000 O   0  0  0  0  0  0  0  0  0  0  0  0
    6.8671   -3.1808    0.0000 O   0  0  0  0  0  0  0  0  0  0  0  0
    5.1350   -3.1808    0.0000 O   0  0  0  0  0  0  0  0  0  0  0  0
    6.8671   -5.1808    0.0000 O   0  0  0  0  0  0  0  0  0  0  0  0
    5.1350   -6.1808    0.0000 O   0  0  0  0  0  0  0  0  0  0  0  0
    3.4030   -5.1808    0.0000 O   0  0  0  0  0  0  0  0  0  0  0  0
    2.5369   -3.6808    0.0000 O   0  0  0  0  0  0  0  0  0  0  0  0
    4.6746    4.5151    0.0000 N   0  0  3  0  0  0  0  0  0  0  0  0
    6.9038    0.9972    0.0000 C   0  0  3  0  0  0  0  0  0  0  0  0
    7.7628    1.4975    0.0000 C   0  0  2  0  0  0  0  0  0  0  0  0
    6.5590    2.5693    0.0000 C   0  0  3  0  0  0  0  0  0  0  0  0
    7.5540    2.4694    0.0000 C   0  0  3  0  0  0  0  0  0  0  0  0
    6.8918   -0.0382    0.0000 C   0  0  2  0  0  0  0  0  0  0  0  0
    6.1614    1.6582    0.0000 C   0  0  0  0  0  0  0  0  0  0  0  0
    6.1480    3.4809    0.0000 C   0  0  1  0  0  0  0  0  0  0  0  0
    6.7320    4.2927    0.0000 C   0  0  3  0  0  0  0  0  0  0  0  0
    7.7866   -0.5594    0.0000 C   0  0  3  0  0  0  0  0  0  0  0  0
    8.6693    0.9972    0.0000 C   0  0  0  0  0  0  0  0  0  0  0  0
    8.1380    3.2812    0.0000 C   0  0  0  0  0  0  0  0  0  0  0  0
    8.6813   -0.0382    0.0000 C   0  0  3  0  0  0  0  0  0  0  0  0
    7.7270    4.1928    0.0000 C   0  0  0  0  0  0  0  0  0  0  0  0
    6.3185    5.2487    0.0000 C   0  0  1  0  0  0  0  0  0  0  0  0
    5.9476   -0.5594    0.0000 C   0  0  0  0  0  0  0  0  0  0  0  0
    5.1101    3.5689    0.0000 C   0  0  0  0  0  0  0  0  0  0  0  0
    5.2829    5.3607    0.0000 C   0  0  3  0  0  0  0  0  0  0  0  0
    7.7990   -1.6379    0.0000 C   0  0  0  0  0  0  0  0  0  0  0  0
    6.0278    0.4651    0.0000 C   0  0  0  0  0  0  0  0  0  0  0  0
    5.9351   -1.6379    0.0000 C   0  0  0  0  0  0  0  0  0  0  0  0
    6.8671   -2.1808    0.0000 C   0  0  2  0  0  0  0  0  0  0  0  0
    4.8522    6.3566    0.0000 C   0  0  0  0  0  0  0  0  0  0  0  0
    7.2348    5.6492    0.0000 C   0  0  0  0  0  0  0  0  0  0  0  0
    3.5935    4.6068    0.0000 C   0  0  0  0  0  0  0  0  0  0  0  0
    3.1399    5.5924    0.0000 C   0  0  2  0  0  0  0  0  0  0  0  0
    3.7735    6.4732    0.0000 C   0  0  0  0  0  0  0  0  0  0  0  0
    2.1445    5.6884    0.0000 C   0  0  0  0  0  0  0  0  0  0  0  0
    6.0010   -3.6808    0.0000 C   0  0  1  0  0  0  0  0  0  0  0  0
    6.0010   -4.6808    0.0000 C   0  0  1  0  0  0  0  0  0  0  0  0
    5.1350   -5.1808    0.0000 C   0  0  1  0  0  0  0  0  0  0  0  0
    4.2690   -3.6808    0.0000 C   0  0  1  0  0  0  0  0  0  0  0  0
    4.2690   -4.6808    0.0000 C   0  0  1  0  0  0  0  0  0  0  0  0
    3.4030   -3.1808    0.0000 C   0  0  0  0  0  0  0  0  0  0  0  0
    6.1263    0.6538    0.0000 H   0  0  0  0  0  0  0  0  0  0  0  0
    8.4451    2.0045    0.0000 H   0  0  0  0  0  0  0  0  0  0  0  0
    5.7091    2.5642    0.0000 H   0  0  0  0  0  0  0  0  0  0  0  0
    8.3861    2.2956    0.0000 H   0  0  0  0  0  0  0  0  0  0  0  0
    5.6224    1.9646    0.0000 H   0  0  0  0  0  0  0  0  0  0  0  0
    5.8000    1.1544    0.0000 H   0  0  0  0  0  0  0  0  0  0  0  0
    5.6570    2.7871    0.0000 H   0  0  0  0  0  0  0  0  0  0  0  0
    7.2336    4.9788    0.0000 H   0  0  0  0  0  0  0  0  0  0  0  0
    8.5260   -0.9787    0.0000 H   0  0  0  0  0  0  0  0  0  0  0  0
    9.2814    0.8981    0.0000 H   0  0  0  0  0  0  0  0  0  0  0  0
    8.8716    1.5832    0.0000 H   0  0  0  0  0  0  0  0  0  0  0  0
    8.5708    2.8373    0.0000 H   0  0  0  0  0  0  0  0  0  0  0  0
    8.6504    3.6303    0.0000 H   0  0  0  0  0  0  0  0  0  0  0  0
    9.4133    0.3938    0.0000 H   0  0  0  0  0  0  0  0  0  0  0  0
    8.3278    4.3457    0.0000 H   0  0  0  0  0  0  0  0  0  0  0  0
    7.6808    4.8111    0.0000 H   0  0  0  0  0  0  0  0  0  0  0  0
    5.7453    0.0267    0.0000 H   0  0  0  0  0  0  0  0  0  0  0  0
    5.3355   -0.6584    0.0000 H   0  0  0  0  0  0  0  0  0  0  0  0
    4.5108    3.4099    0.0000 H   0  0  0  0  0  0  0  0  0  0  0  0
    5.1642    2.9512    0.0000 H   0  0  0  0  0  0  0  0  0  0  0  0
    5.7872    6.0449    0.0000 H   0  0  0  0  0  0  0  0  0  0  0  0
    8.0148   -2.2192    0.0000 H   0  0  0  0  0  0  0  0  0  0  0  0
    8.4086   -1.5248    0.0000 H   0  0  0  0  0  0  0  0  0  0  0  0
    6.3398    1.0008    0.0000 H   0  0  0  0  0  0  0  0  0  0  0  0
    5.4920    0.7772    0.0000 H   0  0  0  0  0  0  0  0  0  0  0  0
    5.7157   -0.0706    0.0000 H   0  0  0  0  0  0  0  0  0  0  0  0
    5.3255   -1.5248    0.0000 H   0  0  0  0  0  0  0  0  0  0  0  0
    5.7193   -2.2192    0.0000 H   0  0  0  0  0  0  0  0  0  0  0  0
    7.4046   -2.4898    0.0000 H   0  0  0  0  0  0  0  0  0  0  0  0
    5.4550    6.5016    0.0000 H   0  0  0  0  0  0  0  0  0  0  0  0
    4.8124    6.9753    0.0000 H   0  0  0  0  0  0  0  0  0  0  0  0
    7.4831    5.0811    0.0000 H   0  0  0  0  0  0  0  0  0  0  0  0
    7.8029    5.8975    0.0000 H   0  0  0  0  0  0  0  0  0  0  0  0
    6.9865    6.2173    0.0000 H   0  0  0  0  0  0  0  0  0  0  0  0
    2.9942    4.4478    0.0000 H   0  0  0  0  0  0  0  0  0  0  0  0
    3.6476    3.9891    0.0000 H   0  0  0  0  0  0  0  0  0  0  0  0
   10.0857   -0.2174    0.0000 H   0  0  0  0  0  0  0  0  0  0  0  0
    2.8840    6.1571    0.0000 H   0  0  0  0  0  0  0  0  0  0  0  0
    3.9447    7.0691    0.0000 H   0  0  0  0  0  0  0  0  0  0  0  0
    3.2157    6.7438    0.0000 H   0  0  0  0  0  0  0  0  0  0  0  0
    6.9979    6.4908    0.0000 H   0  0  0  0  0  0  0  0  0  0  0  0
    2.2040    6.3055    0.0000 H   0  0  0  0  0  0  0  0  0  0  0  0
    1.5274    5.7479    0.0000 H   0  0  0  0  0  0  0  0  0  0  0  0
    2.0850    5.0713    0.0000 H   0  0  0  0  0  0  0  0  0  0  0  0
    6.0010   -3.0608    0.0000 H   0  0  0  0  0  0  0  0  0  0  0  0
    6.0010   -5.3008    0.0000 H   0  0  0  0  0  0  0  0  0  0  0  0
    4.5981   -5.4908    0.0000 H   0  0  0  0  0  0  0  0  0  0  0  0
    4.2690   -3.0608    0.0000 H   0  0  0  0  0  0  0  0  0  0  0  0
    3.7320   -4.3708    0.0000 H   0  0  0  0  0  0  0  0  0  0  0  0
    6.8671   -5.8008    0.0000 H   0  0  0  0  0  0  0  0  0  0  0  0
    3.8015   -2.7058    0.0000 H   0  0  0  0  0  0  0  0  0  0  0  0
    3.0044   -2.7058    0.0000 H   0  0  0  0  0  0  0  0  0  0  0  0
    4.5981   -6.4908    0.0000 H   0  0  0  0  0  0  0  0  0  0  0  0
    3.4030   -5.8008    0.0000 H   0  0  0  0  0  0  0  0  0  0  0  0
    2.0000   -3.3708    0.0000 H   0  0  0  0  0  0  0  0  0  0  0  0
  1 21  1  0  0  0  0
  1 79  1  0  0  0  0
 23  2  1  1  0  0  0
  2 83  1  0  0  0  0
 30  3  1  1  0  0  0
 37  3  1  6  0  0  0
  4 37  1  0  0  0  0
  4 40  1  0  0  0  0
 38  5  1  6  0  0  0
  5 92  1  0  0  0  0
 39  6  1  6  0  0  0
  6 95  1  0  0  0  0
 41  7  1  6  0  0  0
  7 96  1  0  0  0  0
  8 42  1  0  0  0  0
  8 97  1  0  0  0  0
  9 25  1  0  0  0  0
  9 26  1  0  0  0  0
  9 33  1  0  0  0  0
 10 11  1  0  0  0  0
 10 14  1  0  0  0  0
 10 15  1  0  0  0  0
 10 43  1  0  0  0  0
 11 13  1  0  0  0  0
 11 19  1  0  0  0  0
 11 44  1  1  0  0  0
 12 13  1  0  0  0  0
 12 15  1  0  0  0  0
 12 16  1  0  0  0  0
 12 45  1  0  0  0  0
 13 20  1  0  0  0  0
 13 46  1  0  0  0  0
 14 18  1  0  0  0  0
 14 24  1  0  0  0  0
 14 28  1  1  0  0  0
 15 47  1  0  0  0  0
 15 48  1  0  0  0  0
 16 17  1  0  0  0  0
 16 25  1  0  0  0  0
 16 49  1  1  0  0  0
 17 22  1  0  0  0  0
 17 23  1  0  0  0  0
 17 50  1  0  0  0  0
 18 21  1  0  0  0  0
 18 27  1  0  0  0  0
 18 51  1  0  0  0  0
 19 21  1  0  0  0  0
 19 52  1  0  0  0  0
 19 53  1  0  0  0  0
 20 22  1  0  0  0  0
 20 54  1  0  0  0  0
 20 55  1  0  0  0  0
 21 56  1  0  0  0  0
 22 57  1  0  0  0  0
 22 58  1  0  0  0  0
 23 26  1  0  0  0  0
 23 32  1  0  0  0  0
 24 29  1  0  0  0  0
 24 59  1  0  0  0  0
 24 60  1  0  0  0  0
 25 61  1  0  0  0  0
 25 62  1  0  0  0  0
 26 31  1  0  0  0  0
 26 63  1  0  0  0  0
 27 30  1  0  0  0  0
 27 64  1  0  0  0  0
 27 65  1  0  0  0  0
 28 66  1  0  0  0  0
 28 67  1  0  0  0  0
 28 68  1  0  0  0  0
 29 30  1  0  0  0  0
 29 69  1  0  0  0  0
 29 70  1  0  0  0  0
 30 71  1  0  0  0  0
 31 35  1  0  0  0  0
 31 72  1  0  0  0  0
 31 73  1  0  0  0  0
 32 74  1  0  0  0  0
 32 75  1  0  0  0  0
 32 76  1  0  0  0  0
 33 34  1  0  0  0  0
 33 77  1  0  0  0  0
 33 78  1  0  0  0  0
 34 35  1  0  0  0  0
 34 36  1  1  0  0  0
 34 80  1  0  0  0  0
 35 81  1  0  0  0  0
 35 82  1  0  0  0  0
 36 84  1  0  0  0  0
 36 85  1  0  0  0  0
 36 86  1  0  0  0  0
 37 38  1  0  0  0  0
 37 87  1  0  0  0  0
 38 39  1  0  0  0  0
 38 88  1  0  0  0  0
 39 41  1  0  0  0  0
 39 89  1  0  0  0  0
 40 41  1  0  0  0  0
 40 42  1  1  0  0  0
 40 90  1  0  0  0  0
 41 91  1  0  0  0  0
 42 93  1  0  0  0  0
 42 94  1  0  0  0  0
M  END
> <PUBCHEM_COMPOUND_CID>
23304557

> <PUBCHEM_COMPOUND_CANONICALIZED>
1

> <PUBCHEM_CACTVS_COMPLEXITY>
1000

> <PUBCHEM_CACTVS_HBOND_ACCEPTOR>
9

> <PUBCHEM_CACTVS_HBOND_DONOR>
6

> <PUBCHEM_CACTVS_ROTATABLE_BOND>
3

> <PUBCHEM_CACTVS_SUBSKEYS>
AAADcfB+PAAAAAAAAAAAAAAAAAAAAYAAAAA8eNECAAAAAGDwAAAAHgAACAAAD3zxgAcCCAMABgAAAAAAAAAAAAAAAAAAAAAIAAATEAIAgAAmQAAFAACXAAHw4PwPgAAAAAAAAADAAAYAADAAAQAACAAAAA==

> <PUBCHEM_IUPAC_INCHI>
InChI=1S/C33H55NO8/c1-16-4-7-27-33(3,40)22-6-5-18-19(21(22)14-34(27)13-16)11-23-20(18)12-25(36)24-10-17(8-9-32(23,24)2)41-31-30(39)29(38)28(37)26(15-35)42-31/h16-31,35-40H,4-15H2,1-3H3/t16-,17-,18?,19?,20-,21-,22?,23?,24?,25?,26+,27?,28+,29+,30+,31-,32+,33-/m0/s1

> <PUBCHEM_IUPAC_INCHIKEY>
HRUKKZDXKJUOSO-ZOOLXUNPSA-N

> <PUBCHEM_XLOGP3_AA>
2.5

> <PUBCHEM_EXACT_MASS>
593.393

> <PUBCHEM_MOLECULAR_FORMULA>
C33H55NO8

> <PUBCHEM_MOLECULAR_WEIGHT>
593.802

> <PUBCHEM_OPENEYE_CAN_SMILES>
CC1CCC2C(C3CCC4C(C3CN2C1)CC5C4CC(C6C5(CCC(C6)OC7C(C(C(C(O7)CO)O)O)O)C)O)(C)O

> <PUBCHEM_OPENEYE_ISO_SMILES>
C[C@H]1CCC2[C@@](C3CCC4[C@@H]5CC(C6C[C@H](CC[C@@]6(C5CC4[C@@H]3CN2C1)C)O[C@@H]7[C@@H]([C@@H]([C@@H]([C@H](O7)CO)O)O)O)O)(C)O

> <PUBCHEM_CACTVS_TPSA>
143

> <PUBCHEM_MONOISOTOPIC_WEIGHT>
593.393

> <PUBCHEM_TOTAL_CHARGE>
0

> <PUBCHEM_HEAVY_ATOM_COUNT>
42

> <PUBCHEM_ATOM_DEF_STEREO_COUNT>
11

> <PUBCHEM_ATOM_UDEF_STEREO_COUNT>
7

> <PUBCHEM_BOND_DEF_STEREO_COUNT>
0

> <PUBCHEM_BOND_UDEF_STEREO_COUNT>
0

> <PUBCHEM_ISOTOPIC_ATOM_COUNT>
0

> <PUBCHEM_COMPONENT_COUNT>
1

> <PUBCHEM_CACTVS_TAUTO_COUNT>
1

> <PUBCHEM_COORDINATE_TYPE>
1
5
255

> <PUBCHEM_BONDANNOTATIONS>
10  43  3
11  44  5
12  45  3
13  46  3
14  28  5
16  49  5
17  50  3
18  51  3
23  2  5
21  56  3
26  63  3
30  3  5
37  3  6
34  36  5
40  42  5
38  5  6
39  6  6
41  7  6

$$$$
