44259215
  -OEChem-12071809262D

 49 52  0     1  0  0  0  0  0999 V2000
    6.9343    1.7500    0.0000 O   0  0  0  0  0  0  0  0  0  0  0  0
    7.8003    0.2500    0.0000 O   0  0  0  0  0  0  0  0  0  0  0  0
    9.5323    3.2500    0.0000 O   0  0  0  0  0  0  0  0  0  0  0  0
    9.5323    1.2500    0.0000 O   0  0  0  0  0  0  0  0  0  0  0  0
    7.8003    4.2500    0.0000 O   0  0  0  0  0  0  0  0  0  0  0  0
    6.0682   -1.7500    0.0000 O   0  0  0  0  0  0  0  0  0  0  0  0
    6.0682    1.2500    0.0000 O   0  0  0  0  0  0  0  0  0  0  0  0
    4.3198    1.2846    0.0000 O   0  0  0  0  0  0  0  0  0  0  0  0
    2.5381   -1.7742    0.0000 O   0  0  0  0  0  0  0  0  0  0  0  0
    8.6663   -4.2500    0.0000 O   0  0  0  0  0  0  0  0  0  0  0  0
   10.3984   -3.2500    0.0000 O   0  0  0  0  0  0  0  0  0  0  0  0
    8.6663    2.7500    0.0000 C   0  0  3  0  0  0  0  0  0  0  0  0
    8.6663    1.7500    0.0000 C   0  0  3  0  0  0  0  0  0  0  0  0
    7.8003    3.2500    0.0000 C   0  0  2  0  0  0  0  0  0  0  0  0
    7.8003    1.2500    0.0000 C   0  0  1  0  0  0  0  0  0  0  0  0
    6.9343    2.7500    0.0000 C   0  0  0  0  0  0  0  0  0  0  0  0
    6.9343   -0.2500    0.0000 C   0  0  0  0  0  0  0  0  0  0  0  0
    6.9343   -1.2500    0.0000 C   0  0  0  0  0  0  0  0  0  0  0  0
    6.0682    0.2500    0.0000 C   0  0  0  0  0  0  0  0  0  0  0  0
    5.2022   -0.2500    0.0000 C   0  0  0  0  0  0  0  0  0  0  0  0
    5.2022   -1.2500    0.0000 C   0  0  0  0  0  0  0  0  0  0  0  0
    7.8003   -1.7500    0.0000 C   0  0  0  0  0  0  0  0  0  0  0  0
    4.3083    0.2847    0.0000 C   0  0  0  0  0  0  0  0  0  0  0  0
    4.3083   -1.7847    0.0000 C   0  0  0  0  0  0  0  0  0  0  0  0
    7.8003   -2.7500    0.0000 C   0  0  0  0  0  0  0  0  0  0  0  0
    8.6663   -1.2500    0.0000 C   0  0  0  0  0  0  0  0  0  0  0  0
    3.4022   -0.2292    0.0000 C   0  0  0  0  0  0  0  0  0  0  0  0
    3.4022   -1.2708    0.0000 C   0  0  0  0  0  0  0  0  0  0  0  0
    8.6663   -3.2500    0.0000 C   0  0  0  0  0  0  0  0  0  0  0  0
    9.5323   -1.7500    0.0000 C   0  0  0  0  0  0  0  0  0  0  0  0
    9.5323   -2.7500    0.0000 C   0  0  0  0  0  0  0  0  0  0  0  0
    8.6663    3.3700    0.0000 H   0  0  0  0  0  0  0  0  0  0  0  0
    8.6663    1.1300    0.0000 H   0  0  0  0  0  0  0  0  0  0  0  0
    7.2634    3.5600    0.0000 H   0  0  0  0  0  0  0  0  0  0  0  0
    7.2634    0.9400    0.0000 H   0  0  0  0  0  0  0  0  0  0  0  0
    6.7222    3.3326    0.0000 H   0  0  0  0  0  0  0  0  0  0  0  0
    6.3237    2.6423    0.0000 H   0  0  0  0  0  0  0  0  0  0  0  0
    9.5323    3.8700    0.0000 H   0  0  0  0  0  0  0  0  0  0  0  0
   10.0693    1.5600    0.0000 H   0  0  0  0  0  0  0  0  0  0  0  0
    7.2634    4.5600    0.0000 H   0  0  0  0  0  0  0  0  0  0  0  0
    4.3154   -2.4046    0.0000 H   0  0  0  0  0  0  0  0  0  0  0  0
    7.2634   -3.0600    0.0000 H   0  0  0  0  0  0  0  0  0  0  0  0
    8.6663   -0.6300    0.0000 H   0  0  0  0  0  0  0  0  0  0  0  0
    2.8665    0.0829    0.0000 H   0  0  0  0  0  0  0  0  0  0  0  0
   10.0693   -1.4400    0.0000 H   0  0  0  0  0  0  0  0  0  0  0  0
    3.7865    1.6008    0.0000 H   0  0  0  0  0  0  0  0  0  0  0  0
    2.0000   -1.4662    0.0000 H   0  0  0  0  0  0  0  0  0  0  0  0
    8.1294   -4.5600    0.0000 H   0  0  0  0  0  0  0  0  0  0  0  0
   10.9353   -2.9400    0.0000 H   0  0  0  0  0  0  0  0  0  0  0  0
  1 15  1  0  0  0  0
  1 16  1  0  0  0  0
 15  2  1  6  0  0  0
  2 17  1  0  0  0  0
  3 12  1  0  0  0  0
  3 38  1  0  0  0  0
  4 13  1  0  0  0  0
  4 39  1  0  0  0  0
 14  5  1  6  0  0  0
  5 40  1  0  0  0  0
  6 18  1  0  0  0  0
  6 21  1  0  0  0  0
  7 19  2  0  0  0  0
  8 23  1  0  0  0  0
  8 46  1  0  0  0  0
  9 28  1  0  0  0  0
  9 47  1  0  0  0  0
 10 29  1  0  0  0  0
 10 48  1  0  0  0  0
 11 31  1  0  0  0  0
 11 49  1  0  0  0  0
 12 13  1  0  0  0  0
 12 14  1  0  0  0  0
 12 32  1  0  0  0  0
 13 15  1  0  0  0  0
 13 33  1  0  0  0  0
 14 16  1  0  0  0  0
 14 34  1  0  0  0  0
 15 35  1  0  0  0  0
 16 36  1  0  0  0  0
 16 37  1  0  0  0  0
 17 18  2  0  0  0  0
 17 19  1  0  0  0  0
 18 22  1  0  0  0  0
 19 20  1  0  0  0  0
 20 21  1  0  0  0  0
 20 23  2  0  0  0  0
 21 24  2  0  0  0  0
 22 25  2  0  0  0  0
 22 26  1  0  0  0  0
 23 27  1  0  0  0  0
 24 28  1  0  0  0  0
 24 41  1  0  0  0  0
 25 29  1  0  0  0  0
 25 42  1  0  0  0  0
 26 30  2  0  0  0  0
 26 43  1  0  0  0  0
 27 28  2  0  0  0  0
 27 44  1  0  0  0  0
 29 31  2  0  0  0  0
 30 31  1  0  0  0  0
 30 45  1  0  0  0  0
M  END
> <PUBCHEM_COMPOUND_CID>
44259215

> <PUBCHEM_COMPOUND_CANONICALIZED>
1

> <PUBCHEM_CACTVS_COMPLEXITY>
711

> <PUBCHEM_CACTVS_HBOND_ACCEPTOR>
11

> <PUBCHEM_CACTVS_HBOND_DONOR>
7

> <PUBCHEM_CACTVS_ROTATABLE_BOND>
3

> <PUBCHEM_CACTVS_SUBSKEYS>
AAADceB4PAAAAAAAAAAAAAAAAAAAAAAAAAA0YIEAAAAAAACBQAAAGgAACAAADBSwmAMwDoAABgCIAqBSAAICCAAkIAAIiAFGiMgdNzaGNR6ieWGl4BUPuQfI7LzOIAABCAAIQABAAAIQABCAAAAAAAAAAA==

> <PUBCHEM_IUPAC_OPENEYE_NAME>
2-(3,4-dihydroxyphenyl)-5,7-dihydroxy-3-[(2S,5S)-3,4,5-trihydroxytetrahydropyran-2-yl]oxy-chromen-4-one

> <PUBCHEM_IUPAC_CAS_NAME>
2-(3,4-dihydroxyphenyl)-5,7-dihydroxy-3-[[(2S,5S)-3,4,5-trihydroxy-2-oxanyl]oxy]-1-benzopyran-4-one

> <PUBCHEM_IUPAC_NAME>
2-(3,4-dihydroxyphenyl)-5,7-dihydroxy-3-[(2S,5S)-3,4,5-trihydroxyoxan-2-yl]oxychromen-4-one

> <PUBCHEM_IUPAC_SYSTEMATIC_NAME>
2-[3,4-bis(oxidanyl)phenyl]-5,7-bis(oxidanyl)-3-[(2S,5S)-3,4,5-tris(oxidanyl)oxan-2-yl]oxy-chromen-4-one

> <PUBCHEM_IUPAC_TRADITIONAL_NAME>
2-(3,4-dihydroxyphenyl)-5,7-dihydroxy-3-[(2S,5S)-3,4,5-trihydroxytetrahydropyran-2-yl]oxy-chromone

> <PUBCHEM_IUPAC_INCHI>
InChI=1S/C20H18O11/c21-8-4-11(24)14-13(5-8)30-18(7-1-2-9(22)10(23)3-7)19(16(14)27)31-20-17(28)15(26)12(25)6-29-20/h1-5,12,15,17,20-26,28H,6H2/t12-,15?,17?,20-/m0/s1

> <PUBCHEM_IUPAC_INCHIKEY>
PZZRDJXEMZMZFD-RLDUMJPOSA-N

> <PUBCHEM_XLOGP3_AA>
0.4

> <PUBCHEM_EXACT_MASS>
434.085

> <PUBCHEM_MOLECULAR_FORMULA>
C20H18O11

> <PUBCHEM_MOLECULAR_WEIGHT>
434.353

> <PUBCHEM_OPENEYE_CAN_SMILES>
C1C(C(C(C(O1)OC2=C(OC3=CC(=CC(=C3C2=O)O)O)C4=CC(=C(C=C4)O)O)O)O)O

> <PUBCHEM_OPENEYE_ISO_SMILES>
C1[C@@H](C(C([C@@H](O1)OC2=C(OC3=CC(=CC(=C3C2=O)O)O)C4=CC(=C(C=C4)O)O)O)O)O

> <PUBCHEM_CACTVS_TPSA>
186

> <PUBCHEM_MONOISOTOPIC_WEIGHT>
434.085

> <PUBCHEM_TOTAL_CHARGE>
0

> <PUBCHEM_HEAVY_ATOM_COUNT>
31

> <PUBCHEM_ATOM_DEF_STEREO_COUNT>
2

> <PUBCHEM_ATOM_UDEF_STEREO_COUNT>
2

> <PUBCHEM_BOND_DEF_STEREO_COUNT>
0

> <PUBCHEM_BOND_UDEF_STEREO_COUNT>
0

> <PUBCHEM_ISOTOPIC_ATOM_COUNT>
0

> <PUBCHEM_COMPONENT_COUNT>
1

> <PUBCHEM_CACTVS_TAUTO_COUNT>
162

> <PUBCHEM_COORDINATE_TYPE>
1
5
255

> <PUBCHEM_BONDANNOTATIONS>
17  18  8
17  19  8
19  20  8
15  2  6
20  21  8
20  23  8
21  24  8
22  25  8
22  26  8
23  27  8
24  28  8
25  29  8
26  30  8
27  28  8
29  31  8
12  3  3
30  31  8
13  4  3
14  5  6
6  18  8
6  21  8

$$$$
