12308843
  -OEChem-12071809242D

 39 41  0     1  0  0  0  0  0999 V2000
    4.5772   -0.8169    0.0000 C   0  0  1  0  0  0  0  0  0  0  0  0
    4.6841    0.3599    0.0000 C   0  0  0  0  0  0  0  0  0  0  0  0
    4.0772    1.3738    0.0000 C   0  0  1  0  0  0  0  0  0  0  0  0
    5.4782   -0.3830    0.0000 C   0  0  1  0  0  0  0  0  0  0  0  0
    3.6763   -0.3830    0.0000 C   0  0  0  0  0  0  0  0  0  0  0  0
    3.4538    0.5920    0.0000 C   0  0  0  0  0  0  0  0  0  0  0  0
    4.4413   -1.8016    0.0000 C   0  0  0  0  0  0  0  0  0  0  0  0
    5.0772    1.3738    0.0000 C   0  0  0  0  0  0  0  0  0  0  0  0
    5.7007    0.5920    0.0000 C   0  0  0  0  0  0  0  0  0  0  0  0
    3.4630   -1.9782    0.0000 C   0  0  0  0  0  0  0  0  0  0  0  0
    2.9912   -1.1033    0.0000 C   0  0  0  0  0  0  0  0  0  0  0  0
    5.5796    1.0814    0.0000 C   0  0  0  0  0  0  0  0  0  0  0  0
    5.8040    0.0984    0.0000 C   0  0  0  0  0  0  0  0  0  0  0  0
    6.2600   -1.0065    0.0000 C   0  0  0  0  0  0  0  0  0  0  0  0
    2.0000   -0.9708    0.0000 C   0  0  0  0  0  0  0  0  0  0  0  0
    3.8881    2.2025    0.0000 H   0  0  0  0  0  0  0  0  0  0  0  0
    5.4088   -0.9991    0.0000 H   0  0  0  0  0  0  0  0  0  0  0  0
    3.0672    1.0767    0.0000 H   0  0  0  0  0  0  0  0  0  0  0  0
    2.8952    0.3229    0.0000 H   0  0  0  0  0  0  0  0  0  0  0  0
    4.4867   -2.4199    0.0000 H   0  0  0  0  0  0  0  0  0  0  0  0
    5.0609   -1.8214    0.0000 H   0  0  0  0  0  0  0  0  0  0  0  0
    5.6358    1.6428    0.0000 H   0  0  0  0  0  0  0  0  0  0  0  0
    4.9393    1.9782    0.0000 H   0  0  0  0  0  0  0  0  0  0  0  0
    6.2593    0.3229    0.0000 H   0  0  0  0  0  0  0  0  0  0  0  0
    6.0873    1.0767    0.0000 H   0  0  0  0  0  0  0  0  0  0  0  0
    2.8894   -2.2135    0.0000 H   0  0  0  0  0  0  0  0  0  0  0  0
    3.6367   -2.5734    0.0000 H   0  0  0  0  0  0  0  0  0  0  0  0
    5.6630   -0.5053    0.0000 H   0  0  0  0  0  0  0  0  0  0  0  0
    6.4077   -0.0425    0.0000 H   0  0  0  0  0  0  0  0  0  0  0  0
    5.9450    0.7022    0.0000 H   0  0  0  0  0  0  0  0  0  0  0  0
    5.9686    0.5986    0.0000 H   0  0  0  0  0  0  0  0  0  0  0  0
    6.0624    1.4704    0.0000 H   0  0  0  0  0  0  0  0  0  0  0  0
    5.1906    1.5642    0.0000 H   0  0  0  0  0  0  0  0  0  0  0  0
    5.8735   -1.4912    0.0000 H   0  0  0  0  0  0  0  0  0  0  0  0
    6.7448   -1.3930    0.0000 H   0  0  0  0  0  0  0  0  0  0  0  0
    6.6466   -0.5217    0.0000 H   0  0  0  0  0  0  0  0  0  0  0  0
    2.0822   -0.3562    0.0000 H   0  0  0  0  0  0  0  0  0  0  0  0
    1.3855   -0.8886    0.0000 H   0  0  0  0  0  0  0  0  0  0  0  0
    1.9178   -1.5853    0.0000 H   0  0  0  0  0  0  0  0  0  0  0  0
  1  2  1  0  0  0  0
  1  4  1  0  0  0  0
  1  5  1  0  0  0  0
  1  7  1  6  0  0  0
  2  3  1  0  0  0  0
  2 12  1  0  0  0  0
  2 13  1  0  0  0  0
  3  6  1  0  0  0  0
  3  8  1  0  0  0  0
  3 16  1  6  0  0  0
  4  9  1  0  0  0  0
  4 14  1  1  0  0  0
  4 17  1  0  0  0  0
  5  6  1  0  0  0  0
  5 11  2  0  0  0  0
  6 18  1  0  0  0  0
  6 19  1  0  0  0  0
  7 10  1  0  0  0  0
  7 20  1  0  0  0  0
  7 21  1  0  0  0  0
  8  9  1  0  0  0  0
  8 22  1  0  0  0  0
  8 23  1  0  0  0  0
  9 24  1  0  0  0  0
  9 25  1  0  0  0  0
 10 11  1  0  0  0  0
 10 26  1  0  0  0  0
 10 27  1  0  0  0  0
 11 15  1  0  0  0  0
 12 31  1  0  0  0  0
 12 32  1  0  0  0  0
 12 33  1  0  0  0  0
 13 28  1  0  0  0  0
 13 29  1  0  0  0  0
 13 30  1  0  0  0  0
 14 34  1  0  0  0  0
 14 35  1  0  0  0  0
 14 36  1  0  0  0  0
 15 37  1  0  0  0  0
 15 38  1  0  0  0  0
 15 39  1  0  0  0  0
M  END
> <PUBCHEM_COMPOUND_CID>
12308843

> <PUBCHEM_COMPOUND_CANONICALIZED>
1

> <PUBCHEM_CACTVS_COMPLEXITY>
334

> <PUBCHEM_CACTVS_HBOND_ACCEPTOR>
0

> <PUBCHEM_CACTVS_HBOND_DONOR>
0

> <PUBCHEM_CACTVS_ROTATABLE_BOND>
0

> <PUBCHEM_CACTVS_SUBSKEYS>
AAADceBwAAAAAAAAAAAAAAAAAAAAAYIAAAAwAAAABgAQAACAAAAAGAAAAAAADwCAAAACAAAAAACAAgBAAAAAAAAgAAAACAAAAAgAAAIAAAAAAAAAgAAIAAMAgMAPgAAAAAAAAACAAAQAACAAAQAACAAAAA==

> <PUBCHEM_IUPAC_INCHI>
InChI=1S/C15H24/c1-10-7-8-15-11(2)5-6-12(9-13(10)15)14(15,3)4/h11-12H,5-9H2,1-4H3/t11-,12-,15+/m1/s1

> <PUBCHEM_IUPAC_INCHIKEY>
RTBLDXVIGWSICW-JMSVASOKSA-N

> <PUBCHEM_XLOGP3_AA>
4.3

> <PUBCHEM_EXACT_MASS>
204.188

> <PUBCHEM_MOLECULAR_FORMULA>
C15H24

> <PUBCHEM_MOLECULAR_WEIGHT>
204.357

> <PUBCHEM_OPENEYE_CAN_SMILES>
CC1CCC2CC3=C(CCC13C2(C)C)C

> <PUBCHEM_OPENEYE_ISO_SMILES>
C[C@@H]1CC[C@@H]2CC3=C(CC[C@]13C2(C)C)C

> <PUBCHEM_CACTVS_TPSA>
0

> <PUBCHEM_MONOISOTOPIC_WEIGHT>
204.188

> <PUBCHEM_TOTAL_CHARGE>
0

> <PUBCHEM_HEAVY_ATOM_COUNT>
15

> <PUBCHEM_ATOM_DEF_STEREO_COUNT>
3

> <PUBCHEM_ATOM_UDEF_STEREO_COUNT>
0

> <PUBCHEM_BOND_DEF_STEREO_COUNT>
0

> <PUBCHEM_BOND_UDEF_STEREO_COUNT>
0

> <PUBCHEM_ISOTOPIC_ATOM_COUNT>
0

> <PUBCHEM_COMPONENT_COUNT>
1

> <PUBCHEM_CACTVS_TAUTO_COUNT>
1

> <PUBCHEM_COORDINATE_TYPE>
1
5
255

> <PUBCHEM_BONDANNOTATIONS>
1  7  6
3  16  6
4  14  5

$$$$
