101389811
  -OEChem-12071809352D

 75 80  0     1  0  0  0  0  0999 V2000
    5.5954   -2.5246    0.0000 O   0  0  0  0  0  0  0  0  0  0  0  0
    8.3948   -1.2898    0.0000 O   0  0  0  0  0  0  0  0  0  0  0  0
    7.9875   -2.5059    0.0000 O   0  0  0  0  0  0  0  0  0  0  0  0
    3.9300   -1.4434    0.0000 O   0  0  0  0  0  0  0  0  0  0  0  0
    8.3882    2.8128    0.0000 O   0  0  0  0  0  0  0  0  0  0  0  0
   12.0027    2.8546    0.0000 O   0  0  0  0  0  0  0  0  0  0  0  0
    6.6628   -0.2898    0.0000 C   0  0  1  0  0  0  0  0  0  0  0  0
    7.5288   -0.7898    0.0000 C   0  0  1  0  0  0  0  0  0  0  0  0
    5.9258   -0.9569    0.0000 C   0  0  2  0  0  0  0  0  0  0  0  0
    8.3948   -0.2898    0.0000 C   0  0  1  0  0  0  0  0  0  0  0  0
    6.3309   -1.8647    0.0000 C   0  0  2  0  0  0  0  0  0  0  0  0
    7.3196   -1.7616    0.0000 C   0  0  2  0  0  0  0  0  0  0  0  0
    8.3948    0.7102    0.0000 C   0  0  2  0  0  0  0  0  0  0  0  0
    6.6628    0.7102    0.0000 C   0  0  0  0  0  0  0  0  0  0  0  0
    4.9434   -1.0636    0.0000 C   0  0  1  0  0  0  0  0  0  0  0  0
    7.5288    1.2102    0.0000 C   0  0  0  0  0  0  0  0  0  0  0  0
    9.2888    1.2449    0.0000 C   0  0  2  0  0  0  0  0  0  0  0  0
    4.7396   -2.0305    0.0000 C   0  0  1  0  0  0  0  0  0  0  0  0
    5.7968    0.2102    0.0000 C   0  0  0  0  0  0  0  0  0  0  0  0
    9.2888   -0.8245    0.0000 C   0  0  0  0  0  0  0  0  0  0  0  0
   10.1949    0.7310    0.0000 C   0  0  0  0  0  0  0  0  0  0  0  0
    9.2637    2.3296    0.0000 C   0  0  1  0  0  0  0  0  0  0  0  0
    4.2723   -0.3222    0.0000 C   0  0  0  0  0  0  0  0  0  0  0  0
    4.6359   -3.0251    0.0000 C   0  0  0  0  0  0  0  0  0  0  0  0
   10.1949   -0.3106    0.0000 C   0  0  0  0  0  0  0  0  0  0  0  0
    8.4189    1.7382    0.0000 C   0  0  0  0  0  0  0  0  0  0  0  0
   11.1386    1.2663    0.0000 C   0  0  0  0  0  0  0  0  0  0  0  0
   10.1949    2.8865    0.0000 C   0  0  0  0  0  0  0  0  0  0  0  0
   11.1386    2.3512    0.0000 C   0  0  2  0  0  0  0  0  0  0  0  0
    3.7227   -3.4327    0.0000 C   0  0  0  0  0  0  0  0  0  0  0  0
    3.0169   -1.8510    0.0000 C   0  0  0  0  0  0  0  0  0  0  0  0
    2.9132   -2.8456    0.0000 C   0  0  2  0  0  0  0  0  0  0  0  0
    2.0000   -3.2531    0.0000 C   0  0  0  0  0  0  0  0  0  0  0  0
    5.5777   -0.1814    0.0000 H   0  0  0  0  0  0  0  0  0  0  0  0
    9.1342    0.1295    0.0000 H   0  0  0  0  0  0  0  0  0  0  0  0
    6.6756   -2.6416    0.0000 H   0  0  0  0  0  0  0  0  0  0  0  0
    7.9188   -1.6024    0.0000 H   0  0  0  0  0  0  0  0  0  0  0  0
    9.1342    0.2909    0.0000 H   0  0  0  0  0  0  0  0  0  0  0  0
    6.4507    1.2928    0.0000 H   0  0  0  0  0  0  0  0  0  0  0  0
    6.0522    0.6025    0.0000 H   0  0  0  0  0  0  0  0  0  0  0  0
    4.3448   -1.2253    0.0000 H   0  0  0  0  0  0  0  0  0  0  0  0
    7.9274    1.6852    0.0000 H   0  0  0  0  0  0  0  0  0  0  0  0
    7.1303    1.6852    0.0000 H   0  0  0  0  0  0  0  0  0  0  0  0
    6.1068    0.7471    0.0000 H   0  0  0  0  0  0  0  0  0  0  0  0
    5.2598    0.5202    0.0000 H   0  0  0  0  0  0  0  0  0  0  0  0
    5.4868   -0.3267    0.0000 H   0  0  0  0  0  0  0  0  0  0  0  0
    8.8842   -1.2942    0.0000 H   0  0  0  0  0  0  0  0  0  0  0  0
    9.6824   -1.3035    0.0000 H   0  0  0  0  0  0  0  0  0  0  0  0
    8.3948   -1.9098    0.0000 H   0  0  0  0  0  0  0  0  0  0  0  0
    9.2529    2.9495    0.0000 H   0  0  0  0  0  0  0  0  0  0  0  0
    4.7320    0.0939    0.0000 H   0  0  0  0  0  0  0  0  0  0  0  0
    3.8562    0.1375    0.0000 H   0  0  0  0  0  0  0  0  0  0  0  0
    3.8126   -0.7382    0.0000 H   0  0  0  0  0  0  0  0  0  0  0  0
    4.7864   -3.6266    0.0000 H   0  0  0  0  0  0  0  0  0  0  0  0
    5.2544   -2.9814    0.0000 H   0  0  0  0  0  0  0  0  0  0  0  0
   10.7306   -0.6227    0.0000 H   0  0  0  0  0  0  0  0  0  0  0  0
    8.7248    2.2775    0.0000 H   0  0  0  0  0  0  0  0  0  0  0  0
    7.8796    2.0440    0.0000 H   0  0  0  0  0  0  0  0  0  0  0  0
    8.1131    1.1989    0.0000 H   0  0  0  0  0  0  0  0  0  0  0  0
    7.7948   -3.0952    0.0000 H   0  0  0  0  0  0  0  0  0  0  0  0
   11.3477    0.6826    0.0000 H   0  0  0  0  0  0  0  0  0  0  0  0
   11.7495    1.3724    0.0000 H   0  0  0  0  0  0  0  0  0  0  0  0
   10.5885    3.3655    0.0000 H   0  0  0  0  0  0  0  0  0  0  0  0
    9.7903    3.3563    0.0000 H   0  0  0  0  0  0  0  0  0  0  0  0
   11.1351    2.9712    0.0000 H   0  0  0  0  0  0  0  0  0  0  0  0
    3.2771   -3.8637    0.0000 H   0  0  0  0  0  0  0  0  0  0  0  0
    4.0699   -3.9464    0.0000 H   0  0  0  0  0  0  0  0  0  0  0  0
    2.8664   -1.2495    0.0000 H   0  0  0  0  0  0  0  0  0  0  0  0
    2.3984   -1.8948    0.0000 H   0  0  0  0  0  0  0  0  0  0  0  0
    2.4113   -2.4816    0.0000 H   0  0  0  0  0  0  0  0  0  0  0  0
    8.3762    3.4327    0.0000 H   0  0  0  0  0  0  0  0  0  0  0  0
    1.7473   -2.6869    0.0000 H   0  0  0  0  0  0  0  0  0  0  0  0
    1.4338   -3.5058    0.0000 H   0  0  0  0  0  0  0  0  0  0  0  0
    2.2527   -3.8193    0.0000 H   0  0  0  0  0  0  0  0  0  0  0  0
   12.5409    2.5467    0.0000 H   0  0  0  0  0  0  0  0  0  0  0  0
  1 11  1  0  0  0  0
 18  1  1  1  0  0  0
  8  2  1  1  0  0  0
  2 49  1  0  0  0  0
 12  3  1  1  0  0  0
  3 60  1  0  0  0  0
  4 18  1  0  0  0  0
  4 31  1  0  0  0  0
 22  5  1  6  0  0  0
  5 71  1  0  0  0  0
 29  6  1  6  0  0  0
  6 75  1  0  0  0  0
  7  8  1  0  0  0  0
  7  9  1  0  0  0  0
  7 14  1  0  0  0  0
  7 19  1  6  0  0  0
  8 10  1  0  0  0  0
  8 12  1  0  0  0  0
  9 11  1  0  0  0  0
  9 15  1  0  0  0  0
  9 34  1  1  0  0  0
 10 13  1  0  0  0  0
 10 20  1  0  0  0  0
 10 35  1  6  0  0  0
 11 12  1  0  0  0  0
 11 36  1  1  0  0  0
 12 37  1  0  0  0  0
 13 16  1  0  0  0  0
 13 17  1  0  0  0  0
 13 38  1  1  0  0  0
 14 16  1  0  0  0  0
 14 39  1  0  0  0  0
 14 40  1  0  0  0  0
 15 18  1  0  0  0  0
 15 23  1  1  0  0  0
 15 41  1  0  0  0  0
 16 42  1  0  0  0  0
 16 43  1  0  0  0  0
 17 21  1  0  0  0  0
 17 22  1  0  0  0  0
 17 26  1  6  0  0  0
 18 24  1  0  0  0  0
 19 44  1  0  0  0  0
 19 45  1  0  0  0  0
 19 46  1  0  0  0  0
 20 25  1  0  0  0  0
 20 47  1  0  0  0  0
 20 48  1  0  0  0  0
 21 25  2  0  0  0  0
 21 27  1  0  0  0  0
 22 28  1  0  0  0  0
 22 50  1  0  0  0  0
 23 51  1  0  0  0  0
 23 52  1  0  0  0  0
 23 53  1  0  0  0  0
 24 30  1  0  0  0  0
 24 54  1  0  0  0  0
 24 55  1  0  0  0  0
 25 56  1  0  0  0  0
 26 57  1  0  0  0  0
 26 58  1  0  0  0  0
 26 59  1  0  0  0  0
 27 29  1  0  0  0  0
 27 61  1  0  0  0  0
 27 62  1  0  0  0  0
 28 29  1  0  0  0  0
 28 63  1  0  0  0  0
 28 64  1  0  0  0  0
 29 65  1  0  0  0  0
 30 32  1  0  0  0  0
 30 66  1  0  0  0  0
 30 67  1  0  0  0  0
 31 32  1  0  0  0  0
 31 68  1  0  0  0  0
 31 69  1  0  0  0  0
 32 33  1  1  0  0  0
 32 70  1  0  0  0  0
 33 72  1  0  0  0  0
 33 73  1  0  0  0  0
 33 74  1  0  0  0  0
M  END
> <PUBCHEM_COMPOUND_CID>
101389811

> <PUBCHEM_COMPOUND_CANONICALIZED>
1

> <PUBCHEM_CACTVS_COMPLEXITY>
860

> <PUBCHEM_CACTVS_HBOND_ACCEPTOR>
6

> <PUBCHEM_CACTVS_HBOND_DONOR>
4

> <PUBCHEM_CACTVS_ROTATABLE_BOND>
0

> <PUBCHEM_CACTVS_SUBSKEYS>
AAADcfB4OAAAAAAAAAAAAAAAAAAAAaIAAAA0YIEAAAASAGCAAAAAGgAACAAAD1SggAICCAAABgCAAiBCAAAAAAAgAAAACAAAAAgREAIAAQAiQAAFwAAPAAPA4PwPgAAAAAAAAADAAAYQADAAAYQADCAAAA==

> <PUBCHEM_IUPAC_INCHI>
InChI=1S/C27H42O6/c1-14-7-10-26(32-13-14)15(2)21-22(33-26)23(30)27(31)19-6-5-16-11-17(28)12-20(29)25(16,4)18(19)8-9-24(21,27)3/h5,14-15,17-23,28-31H,6-13H2,1-4H3/t14-,15+,17-,18+,19-,20-,21+,22-,23+,24-,25+,26-,27+/m1/s1

> <PUBCHEM_IUPAC_INCHIKEY>
POFBSVIXQGBRSP-AAYBEWPYSA-N

> <PUBCHEM_XLOGP3_AA>
2.5

> <PUBCHEM_EXACT_MASS>
462.298

> <PUBCHEM_MOLECULAR_FORMULA>
C27H42O6

> <PUBCHEM_MOLECULAR_WEIGHT>
462.627

> <PUBCHEM_OPENEYE_CAN_SMILES>
CC1CCC2(C(C3C(O2)C(C4(C3(CCC5C4CC=C6C5(C(CC(C6)O)O)C)C)O)O)C)OC1

> <PUBCHEM_OPENEYE_ISO_SMILES>
C[C@@H]1CC[C@@]2([C@H]([C@H]3[C@@H](O2)[C@@H]([C@@]4([C@@]3(CC[C@H]5[C@H]4CC=C6[C@@]5([C@@H](C[C@@H](C6)O)O)C)C)O)O)C)OC1

> <PUBCHEM_CACTVS_TPSA>
99.4

> <PUBCHEM_MONOISOTOPIC_WEIGHT>
462.298

> <PUBCHEM_TOTAL_CHARGE>
0

> <PUBCHEM_HEAVY_ATOM_COUNT>
33

> <PUBCHEM_ATOM_DEF_STEREO_COUNT>
13

> <PUBCHEM_ATOM_UDEF_STEREO_COUNT>
0

> <PUBCHEM_BOND_DEF_STEREO_COUNT>
0

> <PUBCHEM_BOND_UDEF_STEREO_COUNT>
0

> <PUBCHEM_ISOTOPIC_ATOM_COUNT>
0

> <PUBCHEM_COMPONENT_COUNT>
1

> <PUBCHEM_CACTVS_TAUTO_COUNT>
1

> <PUBCHEM_COORDINATE_TYPE>
1
5
255

> <PUBCHEM_BONDANNOTATIONS>
18  1  5
10  35  6
11  36  5
13  38  5
15  23  5
17  26  6
8  2  5
12  3  5
32  33  5
22  5  6
29  6  6
7  19  6
9  34  5

$$$$
