5318035
  -OEChem-12071809222D

100103  0     1  0  0  0  0  0999 V2000
    7.6967   -5.7796    0.0000 O   0  0  0  0  0  0  0  0  0  0  0  0
    5.0109   -7.0012    0.0000 O   0  0  0  0  0  0  0  0  0  0  0  0
    7.6967   -4.7796    0.0000 O   0  0  0  0  0  0  0  0  0  0  0  0
    8.5462   -6.7404    0.0000 O   0  0  0  0  0  0  0  0  0  0  0  0
    6.8306   -3.2796    0.0000 O   0  0  0  0  0  0  0  0  0  0  0  0
    5.9646   -1.7796    0.0000 O   0  0  0  0  0  0  0  0  0  0  0  0
    3.3665   -5.2796    0.0000 C   0  0  3  0  0  0  0  0  0  0  0  0
    3.3665   -6.2796    0.0000 C   0  0  3  0  0  0  0  0  0  0  0  0
    2.5000   -5.7796    0.0000 C   0  0  0  0  0  0  0  0  0  0  0  0
    4.2326   -4.7796    0.0000 C   0  0  1  0  0  0  0  0  0  0  0  0
    4.2326   -6.7796    0.0000 C   0  0  0  0  0  0  0  0  0  0  0  0
    5.9646   -6.7796    0.0000 C   0  0  1  0  0  0  0  0  0  0  0  0
    5.0986   -6.2796    0.0000 C   0  0  2  0  0  0  0  0  0  0  0  0
    4.8219   -6.0192    0.0000 C   0  0  0  0  0  0  0  0  0  0  0  0
    6.8306   -6.2796    0.0000 C   0  0  1  0  0  0  0  0  0  0  0  0
    2.0000   -4.9135    0.0000 C   0  0  0  0  0  0  0  0  0  0  0  0
    2.0000   -6.6456    0.0000 C   0  0  0  0  0  0  0  0  0  0  0  0
    5.0986   -5.2796    0.0000 C   0  0  0  0  0  0  0  0  0  0  0  0
    6.1738   -7.7514    0.0000 C   0  0  0  0  0  0  0  0  0  0  0  0
    6.8306   -5.2796    0.0000 C   0  0  1  0  0  0  0  0  0  0  0  0
    7.5676   -6.9466    0.0000 C   0  0  2  0  0  0  0  0  0  0  0  0
    5.9646   -5.7796    0.0000 C   0  0  0  0  0  0  0  0  0  0  0  0
    5.9646   -4.7796    0.0000 C   0  0  0  0  0  0  0  0  0  0  0  0
    7.1625   -7.8544    0.0000 C   0  0  0  0  0  0  0  0  0  0  0  0
    5.9646   -3.7796    0.0000 C   0  0  0  0  0  0  0  0  0  0  0  0
    7.6625   -8.7204    0.0000 C   0  0  0  0  0  0  0  0  0  0  0  0
    6.8306   -2.2796    0.0000 C   0  0  0  0  0  0  0  0  0  0  0  0
    7.6967   -1.7796    0.0000 C   0  0  0  0  0  0  0  0  0  0  0  0
    7.6967   -0.7796    0.0000 C   0  0  0  0  0  0  0  0  0  0  0  0
    8.5627   -0.2796    0.0000 C   0  0  0  0  0  0  0  0  0  0  0  0
    8.5627    0.7204    0.0000 C   0  0  0  0  0  0  0  0  0  0  0  0
    9.4287    1.2204    0.0000 C   0  0  0  0  0  0  0  0  0  0  0  0
    9.4287    2.2204    0.0000 C   0  0  0  0  0  0  0  0  0  0  0  0
   10.2947    2.7204    0.0000 C   0  0  0  0  0  0  0  0  0  0  0  0
   10.2947    3.7204    0.0000 C   0  0  0  0  0  0  0  0  0  0  0  0
   11.1608    4.2204    0.0000 C   0  0  0  0  0  0  0  0  0  0  0  0
   11.1608    5.2204    0.0000 C   0  0  0  0  0  0  0  0  0  0  0  0
   12.0268    5.7204    0.0000 C   0  0  0  0  0  0  0  0  0  0  0  0
   12.0268    6.7204    0.0000 C   0  0  0  0  0  0  0  0  0  0  0  0
   12.8928    7.2204    0.0000 C   0  0  0  0  0  0  0  0  0  0  0  0
   12.8928    8.2204    0.0000 C   0  0  0  0  0  0  0  0  0  0  0  0
   13.7588    8.7204    0.0000 C   0  0  0  0  0  0  0  0  0  0  0  0
    2.9416   -4.5434    0.0000 H   0  0  0  0  0  0  0  0  0  0  0  0
    2.9416   -7.0157    0.0000 H   0  0  0  0  0  0  0  0  0  0  0  0
    3.6761   -4.1370    0.0000 H   0  0  0  0  0  0  0  0  0  0  0  0
    3.8340   -7.2545    0.0000 H   0  0  0  0  0  0  0  0  0  0  0  0
    4.6311   -7.2545    0.0000 H   0  0  0  0  0  0  0  0  0  0  0  0
    4.7886   -5.7426    0.0000 H   0  0  0  0  0  0  0  0  0  0  0  0
    2.5369   -4.6035    0.0000 H   0  0  0  0  0  0  0  0  0  0  0  0
    1.6900   -4.3766    0.0000 H   0  0  0  0  0  0  0  0  0  0  0  0
    1.4631   -5.2235    0.0000 H   0  0  0  0  0  0  0  0  0  0  0  0
    1.4631   -6.3356    0.0000 H   0  0  0  0  0  0  0  0  0  0  0  0
    1.6900   -7.1825    0.0000 H   0  0  0  0  0  0  0  0  0  0  0  0
    2.5369   -6.9556    0.0000 H   0  0  0  0  0  0  0  0  0  0  0  0
    5.0986   -5.8995    0.0000 H   0  0  0  0  0  0  0  0  0  0  0  0
    5.7598   -8.2128    0.0000 H   0  0  0  0  0  0  0  0  0  0  0  0
    6.8306   -4.6596    0.0000 H   0  0  0  0  0  0  0  0  0  0  0  0
    7.9572   -7.4290    0.0000 H   0  0  0  0  0  0  0  0  0  0  0  0
    6.2746   -6.3165    0.0000 H   0  0  0  0  0  0  0  0  0  0  0  0
    6.5016   -5.4696    0.0000 H   0  0  0  0  0  0  0  0  0  0  0  0
    5.6546   -5.2426    0.0000 H   0  0  0  0  0  0  0  0  0  0  0  0
    8.2336   -6.0896    0.0000 H   0  0  0  0  0  0  0  0  0  0  0  0
    5.7526   -3.1969    0.0000 H   0  0  0  0  0  0  0  0  0  0  0  0
    5.3540   -3.8872    0.0000 H   0  0  0  0  0  0  0  0  0  0  0  0
    7.1256   -9.0304    0.0000 H   0  0  0  0  0  0  0  0  0  0  0  0
    7.9725   -9.2574    0.0000 H   0  0  0  0  0  0  0  0  0  0  0  0
    8.1995   -8.4105    0.0000 H   0  0  0  0  0  0  0  0  0  0  0  0
    7.6967   -4.1596    0.0000 H   0  0  0  0  0  0  0  0  0  0  0  0
    8.9602   -7.2019    0.0000 H   0  0  0  0  0  0  0  0  0  0  0  0
    7.9087   -2.3622    0.0000 H   0  0  0  0  0  0  0  0  0  0  0  0
    8.3072   -1.6719    0.0000 H   0  0  0  0  0  0  0  0  0  0  0  0
    7.4846   -0.1969    0.0000 H   0  0  0  0  0  0  0  0  0  0  0  0
    7.0861   -0.8872    0.0000 H   0  0  0  0  0  0  0  0  0  0  0  0
    8.7747   -0.8622    0.0000 H   0  0  0  0  0  0  0  0  0  0  0  0
    9.1733   -0.1719    0.0000 H   0  0  0  0  0  0  0  0  0  0  0  0
    8.3506    1.3031    0.0000 H   0  0  0  0  0  0  0  0  0  0  0  0
    7.9521    0.6128    0.0000 H   0  0  0  0  0  0  0  0  0  0  0  0
    9.6408    0.6378    0.0000 H   0  0  0  0  0  0  0  0  0  0  0  0
   10.0393    1.3281    0.0000 H   0  0  0  0  0  0  0  0  0  0  0  0
    9.2167    2.8031    0.0000 H   0  0  0  0  0  0  0  0  0  0  0  0
    8.8181    2.1128    0.0000 H   0  0  0  0  0  0  0  0  0  0  0  0
   10.5068    2.1378    0.0000 H   0  0  0  0  0  0  0  0  0  0  0  0
   10.9053    2.8281    0.0000 H   0  0  0  0  0  0  0  0  0  0  0  0
   10.0827    4.3031    0.0000 H   0  0  0  0  0  0  0  0  0  0  0  0
    9.6842    3.6128    0.0000 H   0  0  0  0  0  0  0  0  0  0  0  0
   11.3728    3.6378    0.0000 H   0  0  0  0  0  0  0  0  0  0  0  0
   11.7713    4.3281    0.0000 H   0  0  0  0  0  0  0  0  0  0  0  0
   10.9487    5.8031    0.0000 H   0  0  0  0  0  0  0  0  0  0  0  0
   10.5502    5.1128    0.0000 H   0  0  0  0  0  0  0  0  0  0  0  0
   12.2388    5.1378    0.0000 H   0  0  0  0  0  0  0  0  0  0  0  0
   12.6374    5.8281    0.0000 H   0  0  0  0  0  0  0  0  0  0  0  0
   11.8147    7.3031    0.0000 H   0  0  0  0  0  0  0  0  0  0  0  0
   11.4162    6.6128    0.0000 H   0  0  0  0  0  0  0  0  0  0  0  0
   13.1049    6.6378    0.0000 H   0  0  0  0  0  0  0  0  0  0  0  0
   13.5034    7.3281    0.0000 H   0  0  0  0  0  0  0  0  0  0  0  0
   12.6808    8.8031    0.0000 H   0  0  0  0  0  0  0  0  0  0  0  0
   12.2822    8.1128    0.0000 H   0  0  0  0  0  0  0  0  0  0  0  0
   14.0688    8.1835    0.0000 H   0  0  0  0  0  0  0  0  0  0  0  0
   14.2958    9.0304    0.0000 H   0  0  0  0  0  0  0  0  0  0  0  0
   13.4488    9.2574    0.0000 H   0  0  0  0  0  0  0  0  0  0  0  0
 15  1  1  1  0  0  0
  1 62  1  0  0  0  0
  2 14  2  0  0  0  0
 20  3  1  1  0  0  0
  3 68  1  0  0  0  0
 21  4  1  1  0  0  0
  4 69  1  0  0  0  0
  5 25  1  0  0  0  0
  5 27  1  0  0  0  0
  6 27  2  0  0  0  0
  7  8  1  0  0  0  0
  7  9  1  0  0  0  0
  7 10  1  0  0  0  0
  7 43  1  0  0  0  0
  8  9  1  0  0  0  0
  8 11  1  0  0  0  0
  8 44  1  0  0  0  0
  9 16  1  0  0  0  0
  9 17  1  0  0  0  0
 10 14  1  0  0  0  0
 10 18  1  0  0  0  0
 10 45  1  1  0  0  0
 11 13  1  0  0  0  0
 11 46  1  0  0  0  0
 11 47  1  0  0  0  0
 12 13  1  0  0  0  0
 12 14  1  0  0  0  0
 12 15  1  0  0  0  0
 12 19  1  6  0  0  0
 13 22  1  1  0  0  0
 13 48  1  0  0  0  0
 15 20  1  0  0  0  0
 15 21  1  0  0  0  0
 16 49  1  0  0  0  0
 16 50  1  0  0  0  0
 16 51  1  0  0  0  0
 17 52  1  0  0  0  0
 17 53  1  0  0  0  0
 17 54  1  0  0  0  0
 18 23  2  0  0  0  0
 18 55  1  0  0  0  0
 19 24  2  0  0  0  0
 19 56  1  0  0  0  0
 20 23  1  0  0  0  0
 20 57  1  0  0  0  0
 21 24  1  0  0  0  0
 21 58  1  0  0  0  0
 22 59  1  0  0  0  0
 22 60  1  0  0  0  0
 22 61  1  0  0  0  0
 23 25  1  0  0  0  0
 24 26  1  0  0  0  0
 25 63  1  0  0  0  0
 25 64  1  0  0  0  0
 26 65  1  0  0  0  0
 26 66  1  0  0  0  0
 26 67  1  0  0  0  0
 27 28  1  0  0  0  0
 28 29  1  0  0  0  0
 28 70  1  0  0  0  0
 28 71  1  0  0  0  0
 29 30  1  0  0  0  0
 29 72  1  0  0  0  0
 29 73  1  0  0  0  0
 30 31  1  0  0  0  0
 30 74  1  0  0  0  0
 30 75  1  0  0  0  0
 31 32  1  0  0  0  0
 31 76  1  0  0  0  0
 31 77  1  0  0  0  0
 32 33  1  0  0  0  0
 32 78  1  0  0  0  0
 32 79  1  0  0  0  0
 33 34  1  0  0  0  0
 33 80  1  0  0  0  0
 33 81  1  0  0  0  0
 34 35  1  0  0  0  0
 34 82  1  0  0  0  0
 34 83  1  0  0  0  0
 35 36  1  0  0  0  0
 35 84  1  0  0  0  0
 35 85  1  0  0  0  0
 36 37  1  0  0  0  0
 36 86  1  0  0  0  0
 36 87  1  0  0  0  0
 37 38  1  0  0  0  0
 37 88  1  0  0  0  0
 37 89  1  0  0  0  0
 38 39  1  0  0  0  0
 38 90  1  0  0  0  0
 38 91  1  0  0  0  0
 39 40  1  0  0  0  0
 39 92  1  0  0  0  0
 39 93  1  0  0  0  0
 40 41  1  0  0  0  0
 40 94  1  0  0  0  0
 40 95  1  0  0  0  0
 41 42  1  0  0  0  0
 41 96  1  0  0  0  0
 41 97  1  0  0  0  0
 42 98  1  0  0  0  0
 42 99  1  0  0  0  0
 42100  1  0  0  0  0
M  END
> <PUBCHEM_COMPOUND_CID>
5318035

> <PUBCHEM_COMPOUND_CANONICALIZED>
1

> <PUBCHEM_CACTVS_COMPLEXITY>
1030

> <PUBCHEM_CACTVS_HBOND_ACCEPTOR>
6

> <PUBCHEM_CACTVS_HBOND_DONOR>
3

> <PUBCHEM_CACTVS_ROTATABLE_BOND>
17

> <PUBCHEM_CACTVS_SUBSKEYS>
AAADcfB8OAAAAAAAAAAAAAAAGAAAAQAAAAAAAAAABggYAACAAAAAGgAACAAAD1SggAICCAAABgCIAqDSCAAAAAAgAAAACAEAAAgBFBYAIQACUAAF4AAJMAPK6PyPgAAAAAAAAAAAAAAAAAAAAAAAAAAAAA==

> <PUBCHEM_IUPAC_INCHI>
InChI=1S/C36H58O6/c1-6-7-8-9-10-11-12-13-14-15-16-17-18-19-29(37)42-23-26-21-27-30-28(34(30,4)5)20-25(3)35(33(27)40)22-24(2)31(38)36(35,41)32(26)39/h21-22,25,27-28,30-32,38-39,41H,6-20,23H2,1-5H3/t25-,27+,28?,30?,31+,32-,35+,36-/m1/s1

> <PUBCHEM_IUPAC_INCHIKEY>
DSTCZBGJCUOFLM-COECVNONSA-N

> <PUBCHEM_XLOGP3_AA>
7.6

> <PUBCHEM_EXACT_MASS>
586.423

> <PUBCHEM_MOLECULAR_FORMULA>
C36H58O6

> <PUBCHEM_MOLECULAR_WEIGHT>
586.854

> <PUBCHEM_OPENEYE_CAN_SMILES>
CCCCCCCCCCCCCCCC(=O)OCC1=CC2C3C(C3(C)C)CC(C4(C2=O)C=C(C(C4(C1O)O)O)C)C

> <PUBCHEM_OPENEYE_ISO_SMILES>
CCCCCCCCCCCCCCCC(=O)OCC1=C[C@H]2C3C(C3(C)C)C[C@H]([C@]4(C2=O)C=C([C@@H]([C@]4([C@@H]1O)O)O)C)C

> <PUBCHEM_CACTVS_TPSA>
104

> <PUBCHEM_MONOISOTOPIC_WEIGHT>
586.423

> <PUBCHEM_TOTAL_CHARGE>
0

> <PUBCHEM_HEAVY_ATOM_COUNT>
42

> <PUBCHEM_ATOM_DEF_STEREO_COUNT>
6

> <PUBCHEM_ATOM_UDEF_STEREO_COUNT>
2

> <PUBCHEM_BOND_DEF_STEREO_COUNT>
0

> <PUBCHEM_BOND_UDEF_STEREO_COUNT>
0

> <PUBCHEM_ISOTOPIC_ATOM_COUNT>
0

> <PUBCHEM_COMPONENT_COUNT>
1

> <PUBCHEM_CACTVS_TAUTO_COUNT>
1

> <PUBCHEM_COORDINATE_TYPE>
1
5
255

> <PUBCHEM_BONDANNOTATIONS>
15  1  5
10  45  5
12  19  6
13  22  5
20  3  5
21  4  5
7  43  3
8  44  3

$$$$
