5317396
  -OEChem-12071809182D

 73 78  0     1  0  0  0  0  0999 V2000
    7.8578    3.7131    0.0000 O   0  0  0  0  0  0  0  0  0  0  0  0
    2.0000   -3.6812    0.0000 O   0  0  0  0  0  0  0  0  0  0  0  0
    8.2739    1.2859    0.0000 N   0  0  3  0  0  0  0  0  0  0  0  0
    5.6079    0.8067    0.0000 C   0  0  2  0  0  0  0  0  0  0  0  0
    4.7418    1.3067    0.0000 C   0  0  2  0  0  0  0  0  0  0  0  0
    4.4099   -0.2682    0.0000 C   0  0  2  0  0  0  0  0  0  0  0  0
    4.0048    0.6396    0.0000 C   0  0  1  0  0  0  0  0  0  0  0  0
    6.4739    1.3067    0.0000 C   0  0  1  0  0  0  0  0  0  0  0  0
    5.3986   -0.1651    0.0000 C   0  0  0  0  0  0  0  0  0  0  0  0
    6.4739    2.3067    0.0000 C   0  0  2  0  0  0  0  0  0  0  0  0
    3.8150   -1.1157    0.0000 C   0  0  2  0  0  0  0  0  0  0  0  0
    4.7418    2.3067    0.0000 C   0  0  0  0  0  0  0  0  0  0  0  0
    5.6079    2.8067    0.0000 C   0  0  0  0  0  0  0  0  0  0  0  0
    7.3678    2.8414    0.0000 C   0  0  1  0  0  0  0  0  0  0  0  0
    7.3678    0.7720    0.0000 C   0  0  0  0  0  0  0  0  0  0  0  0
    8.2739    2.3275    0.0000 C   0  0  2  0  0  0  0  0  0  0  0  0
    2.9767    0.7628    0.0000 C   0  0  0  0  0  0  0  0  0  0  0  0
    2.7843   -1.0163    0.0000 C   0  0  0  0  0  0  0  0  0  0  0  0
    4.2772   -2.0902    0.0000 C   0  0  0  0  0  0  0  0  0  0  0  0
    2.3624   -0.0707    0.0000 C   0  0  0  0  0  0  0  0  0  0  0  0
    4.8104   -1.2117    0.0000 C   0  0  0  0  0  0  0  0  0  0  0  0
    9.2050    2.8844    0.0000 C   0  0  0  0  0  0  0  0  0  0  0  0
    9.2050    0.7290    0.0000 C   0  0  0  0  0  0  0  0  0  0  0  0
    6.8578    3.7016    0.0000 C   0  0  0  0  0  0  0  0  0  0  0  0
    2.1444   -1.8845    0.0000 C   0  0  0  0  0  0  0  0  0  0  0  0
    3.6576   -2.9730    0.0000 C   0  0  0  0  0  0  0  0  0  0  0  0
   10.1488    1.2642    0.0000 C   0  0  2  0  0  0  0  0  0  0  0  0
    2.5840   -2.8694    0.0000 C   0  0  1  0  0  0  0  0  0  0  0  0
   10.1488    2.3492    0.0000 C   0  0  0  0  0  0  0  0  0  0  0  0
   11.0129    0.7609    0.0000 C   0  0  0  0  0  0  0  0  0  0  0  0
    6.2949    0.3062    0.0000 H   0  0  0  0  0  0  0  0  0  0  0  0
    3.9649    1.6514    0.0000 H   0  0  0  0  0  0  0  0  0  0  0  0
    4.8406   -1.0010    0.0000 H   0  0  0  0  0  0  0  0  0  0  0  0
    3.7470    1.4496    0.0000 H   0  0  0  0  0  0  0  0  0  0  0  0
    6.4673    0.4567    0.0000 H   0  0  0  0  0  0  0  0  0  0  0  0
    5.3978   -0.7851    0.0000 H   0  0  0  0  0  0  0  0  0  0  0  0
    6.0151   -0.2312    0.0000 H   0  0  0  0  0  0  0  0  0  0  0  0
    6.4673    3.1567    0.0000 H   0  0  0  0  0  0  0  0  0  0  0  0
    4.5298    2.8893    0.0000 H   0  0  0  0  0  0  0  0  0  0  0  0
    4.1312    2.1990    0.0000 H   0  0  0  0  0  0  0  0  0  0  0  0
    6.0064    3.2816    0.0000 H   0  0  0  0  0  0  0  0  0  0  0  0
    5.2093    3.2816    0.0000 H   0  0  0  0  0  0  0  0  0  0  0  0
    6.9632    0.3023    0.0000 H   0  0  0  0  0  0  0  0  0  0  0  0
    7.7614    0.2930    0.0000 H   0  0  0  0  0  0  0  0  0  0  0  0
    8.2641    3.1775    0.0000 H   0  0  0  0  0  0  0  0  0  0  0  0
    3.1547    1.3567    0.0000 H   0  0  0  0  0  0  0  0  0  0  0  0
    2.4220    1.0398    0.0000 H   0  0  0  0  0  0  0  0  0  0  0  0
    4.7162   -2.5280    0.0000 H   0  0  0  0  0  0  0  0  0  0  0  0
    4.7837   -1.7326    0.0000 H   0  0  0  0  0  0  0  0  0  0  0  0
    1.7460   -0.0040    0.0000 H   0  0  0  0  0  0  0  0  0  0  0  0
    4.7509   -1.8288    0.0000 H   0  0  0  0  0  0  0  0  0  0  0  0
    5.4275   -1.2712    0.0000 H   0  0  0  0  0  0  0  0  0  0  0  0
    4.8699   -0.5945    0.0000 H   0  0  0  0  0  0  0  0  0  0  0  0
    9.5987    3.3634    0.0000 H   0  0  0  0  0  0  0  0  0  0  0  0
    8.8004    3.3542    0.0000 H   0  0  0  0  0  0  0  0  0  0  0  0
    8.8004    0.2592    0.0000 H   0  0  0  0  0  0  0  0  0  0  0  0
    9.5987    0.2499    0.0000 H   0  0  0  0  0  0  0  0  0  0  0  0
    7.3912    4.0177    0.0000 H   0  0  0  0  0  0  0  0  0  0  0  0
    6.5417    4.2349    0.0000 H   0  0  0  0  0  0  0  0  0  0  0  0
    6.3245    3.3854    0.0000 H   0  0  0  0  0  0  0  0  0  0  0  0
    1.7156   -1.4367    0.0000 H   0  0  0  0  0  0  0  0  0  0  0  0
    1.6298   -2.2303    0.0000 H   0  0  0  0  0  0  0  0  0  0  0  0
    3.4933   -3.5708    0.0000 H   0  0  0  0  0  0  0  0  0  0  0  0
    4.2185   -3.2371    0.0000 H   0  0  0  0  0  0  0  0  0  0  0  0
   10.6864    1.5732    0.0000 H   0  0  0  0  0  0  0  0  0  0  0  0
    1.9672   -2.8064    0.0000 H   0  0  0  0  0  0  0  0  0  0  0  0
   10.7597    2.2431    0.0000 H   0  0  0  0  0  0  0  0  0  0  0  0
   10.3579    2.9329    0.0000 H   0  0  0  0  0  0  0  0  0  0  0  0
    7.5416    4.2464    0.0000 H   0  0  0  0  0  0  0  0  0  0  0  0
   10.7009    0.2251    0.0000 H   0  0  0  0  0  0  0  0  0  0  0  0
   11.5487    0.4488    0.0000 H   0  0  0  0  0  0  0  0  0  0  0  0
   11.3250    1.2966    0.0000 H   0  0  0  0  0  0  0  0  0  0  0  0
    2.2548   -4.2464    0.0000 H   0  0  0  0  0  0  0  0  0  0  0  0
 14  1  1  6  0  0  0
  1 69  1  0  0  0  0
 28  2  1  1  0  0  0
  2 73  1  0  0  0  0
  3 15  1  0  0  0  0
  3 16  1  0  0  0  0
  3 23  1  0  0  0  0
  4  5  1  0  0  0  0
  4  8  1  0  0  0  0
  4  9  1  0  0  0  0
  4 31  1  1  0  0  0
  5  7  1  0  0  0  0
  5 12  1  0  0  0  0
  5 32  1  1  0  0  0
  6  7  1  0  0  0  0
  6  9  1  0  0  0  0
  6 11  1  0  0  0  0
  6 33  1  1  0  0  0
  7 17  1  0  0  0  0
  7 34  1  6  0  0  0
  8 10  1  0  0  0  0
  8 15  1  0  0  0  0
  8 35  1  6  0  0  0
  9 36  1  0  0  0  0
  9 37  1  0  0  0  0
 10 13  1  0  0  0  0
 10 14  1  0  0  0  0
 10 38  1  1  0  0  0
 11 18  1  0  0  0  0
 11 19  1  0  0  0  0
 11 21  1  6  0  0  0
 12 13  1  0  0  0  0
 12 39  1  0  0  0  0
 12 40  1  0  0  0  0
 13 41  1  0  0  0  0
 13 42  1  0  0  0  0
 14 16  1  0  0  0  0
 14 24  1  0  0  0  0
 15 43  1  0  0  0  0
 15 44  1  0  0  0  0
 16 22  1  0  0  0  0
 16 45  1  1  0  0  0
 17 20  1  0  0  0  0
 17 46  1  0  0  0  0
 17 47  1  0  0  0  0
 18 20  2  0  0  0  0
 18 25  1  0  0  0  0
 19 26  1  0  0  0  0
 19 48  1  0  0  0  0
 19 49  1  0  0  0  0
 20 50  1  0  0  0  0
 21 51  1  0  0  0  0
 21 52  1  0  0  0  0
 21 53  1  0  0  0  0
 22 29  1  0  0  0  0
 22 54  1  0  0  0  0
 22 55  1  0  0  0  0
 23 27  1  0  0  0  0
 23 56  1  0  0  0  0
 23 57  1  0  0  0  0
 24 58  1  0  0  0  0
 24 59  1  0  0  0  0
 24 60  1  0  0  0  0
 25 28  1  0  0  0  0
 25 61  1  0  0  0  0
 25 62  1  0  0  0  0
 26 28  1  0  0  0  0
 26 63  1  0  0  0  0
 26 64  1  0  0  0  0
 27 29  1  0  0  0  0
 27 30  1  6  0  0  0
 27 65  1  0  0  0  0
 28 66  1  0  0  0  0
 29 67  1  0  0  0  0
 29 68  1  0  0  0  0
 30 70  1  0  0  0  0
 30 71  1  0  0  0  0
 30 72  1  0  0  0  0
M  END
> <PUBCHEM_COMPOUND_CID>
5317396

> <PUBCHEM_COMPOUND_CANONICALIZED>
1

> <PUBCHEM_CACTVS_COMPLEXITY>
734

> <PUBCHEM_CACTVS_HBOND_ACCEPTOR>
3

> <PUBCHEM_CACTVS_HBOND_DONOR>
2

> <PUBCHEM_CACTVS_ROTATABLE_BOND>
0

> <PUBCHEM_CACTVS_SUBSKEYS>
AAADcfB6MAAAAAAAAAAAAAAAAAAAAYAAAAA8eIECAAAAAGCwAAAAHgAACAAAD3zhgAYCAAMAAgCAAiBCAAAAAAAgAAAACAAIAAgCEAIAgQAEQAAEwACYAAOwwPAPgAAAAAAAAADAAAQAACAAAQAACAAAAA==

> <PUBCHEM_IUPAC_INCHI>
InChI=1S/C27H43NO2/c1-16-4-9-25-27(3,30)23-8-7-19-20-6-5-17-12-18(29)10-11-26(17,2)24(20)13-21(19)22(23)15-28(25)14-16/h5,16,18-25,29-30H,4,6-15H2,1-3H3/t16-,18+,19-,20-,21+,22-,23-,24-,25-,26-,27-/m0/s1

> <PUBCHEM_IUPAC_INCHIKEY>
YRLBRLSLZIRTGX-MLQUENCRSA-N

> <PUBCHEM_XLOGP3_AA>
4.7

> <PUBCHEM_EXACT_MASS>
413.329

> <PUBCHEM_MOLECULAR_FORMULA>
C27H43NO2

> <PUBCHEM_MOLECULAR_WEIGHT>
413.646

> <PUBCHEM_OPENEYE_CAN_SMILES>
CC1CCC2C(C3CCC4C5CC=C6CC(CCC6(C5CC4C3CN2C1)C)O)(C)O

> <PUBCHEM_OPENEYE_ISO_SMILES>
C[C@H]1CC[C@H]2[C@@]([C@H]3CC[C@H]4[C@@H]5CC=C6C[C@@H](CC[C@@]6([C@H]5C[C@H]4[C@@H]3CN2C1)C)O)(C)O

> <PUBCHEM_CACTVS_TPSA>
43.7

> <PUBCHEM_MONOISOTOPIC_WEIGHT>
413.329

> <PUBCHEM_TOTAL_CHARGE>
0

> <PUBCHEM_HEAVY_ATOM_COUNT>
30

> <PUBCHEM_ATOM_DEF_STEREO_COUNT>
11

> <PUBCHEM_ATOM_UDEF_STEREO_COUNT>
0

> <PUBCHEM_BOND_DEF_STEREO_COUNT>
0

> <PUBCHEM_BOND_UDEF_STEREO_COUNT>
0

> <PUBCHEM_ISOTOPIC_ATOM_COUNT>
0

> <PUBCHEM_COMPONENT_COUNT>
1

> <PUBCHEM_CACTVS_TAUTO_COUNT>
1

> <PUBCHEM_COORDINATE_TYPE>
1
5
255

> <PUBCHEM_BONDANNOTATIONS>
14  1  6
10  38  5
11  21  6
16  45  5
28  2  5
27  30  6
4  31  5
5  32  5
6  33  5
7  34  6
8  35  6

$$$$
