107609
  -OEChem-12071809282D

 28 28  0     1  0  0  0  0  0999 V2000
    6.2633    0.4635    0.0000 O   0  0  0  0  0  0  0  0  0  0  0  0
    2.0000   -0.2056    0.0000 O   0  0  0  0  0  0  0  0  0  0  0  0
    5.7281   -1.1838    0.0000 O   0  0  0  0  0  0  0  0  0  0  0  0
    3.7601   -0.4844    0.0000 N   0  0  0  0  0  0  0  0  0  0  0  0
    4.5691    0.1034    0.0000 C   0  0  1  0  0  0  0  0  0  0  0  0
    4.2601    1.0545    0.0000 C   0  0  0  0  0  0  0  0  0  0  0  0
    3.2601    1.0545    0.0000 C   0  0  0  0  0  0  0  0  0  0  0  0
    2.9511    0.1034    0.0000 C   0  0  0  0  0  0  0  0  0  0  0  0
    5.5202   -0.2056    0.0000 C   0  0  0  0  0  0  0  0  0  0  0  0
    7.9575    0.8236    0.0000 C   0  0  0  0  0  0  0  0  0  0  0  0
    7.2144    0.1545    0.0000 C   0  0  0  0  0  0  0  0  0  0  0  0
    8.9086    0.5146    0.0000 C   0  0  0  0  0  0  0  0  0  0  0  0
    9.6517    1.1838    0.0000 C   0  0  0  0  0  0  0  0  0  0  0  0
    4.6661   -0.5090    0.0000 H   0  0  0  0  0  0  0  0  0  0  0  0
    4.8665    1.1834    0.0000 H   0  0  0  0  0  0  0  0  0  0  0  0
    4.1953    1.6711    0.0000 H   0  0  0  0  0  0  0  0  0  0  0  0
    3.3249    1.6711    0.0000 H   0  0  0  0  0  0  0  0  0  0  0  0
    2.6536    1.1834    0.0000 H   0  0  0  0  0  0  0  0  0  0  0  0
    3.7601   -1.1044    0.0000 H   0  0  0  0  0  0  0  0  0  0  0  0
    8.2486    1.3711    0.0000 H   0  0  0  0  0  0  0  0  0  0  0  0
    7.4689    1.2054    0.0000 H   0  0  0  0  0  0  0  0  0  0  0  0
    6.9233   -0.3929    0.0000 H   0  0  0  0  0  0  0  0  0  0  0  0
    7.7029   -0.2272    0.0000 H   0  0  0  0  0  0  0  0  0  0  0  0
    8.6175   -0.0328    0.0000 H   0  0  0  0  0  0  0  0  0  0  0  0
    9.3971    0.1329    0.0000 H   0  0  0  0  0  0  0  0  0  0  0  0
   10.0666    0.7230    0.0000 H   0  0  0  0  0  0  0  0  0  0  0  0
   10.1124    1.5986    0.0000 H   0  0  0  0  0  0  0  0  0  0  0  0
    9.2368    1.6445    0.0000 H   0  0  0  0  0  0  0  0  0  0  0  0
  1  9  1  0  0  0  0
  1 11  1  0  0  0  0
  2  8  2  0  0  0  0
  3  9  2  0  0  0  0
  4  5  1  0  0  0  0
  4  8  1  0  0  0  0
  4 19  1  0  0  0  0
  5  6  1  0  0  0  0
  5  9  1  1  0  0  0
  5 14  1  0  0  0  0
  6  7  1  0  0  0  0
  6 15  1  0  0  0  0
  6 16  1  0  0  0  0
  7  8  1  0  0  0  0
  7 17  1  0  0  0  0
  7 18  1  0  0  0  0
 10 11  1  0  0  0  0
 10 12  1  0  0  0  0
 10 20  1  0  0  0  0
 10 21  1  0  0  0  0
 11 22  1  0  0  0  0
 11 23  1  0  0  0  0
 12 13  1  0  0  0  0
 12 24  1  0  0  0  0
 12 25  1  0  0  0  0
 13 26  1  0  0  0  0
 13 27  1  0  0  0  0
 13 28  1  0  0  0  0
M  END
> <PUBCHEM_COMPOUND_CID>
107609

> <PUBCHEM_COMPOUND_CANONICALIZED>
1

> <PUBCHEM_CACTVS_COMPLEXITY>
203

> <PUBCHEM_CACTVS_HBOND_ACCEPTOR>
3

> <PUBCHEM_CACTVS_HBOND_DONOR>
1

> <PUBCHEM_CACTVS_ROTATABLE_BOND>
5

> <PUBCHEM_CACTVS_SUBSKEYS>
AAADccByMAAAAAAAAAAAAAAAAAAAAWAAAAAAAAAAAAAAAAAAAAAAHgAQAAAACCjhgAYCCALABAAIAAGQGAAAAAAAAAAAAIGIAAACABIAgCAHAAAEFgCQAACcFwAAAAAAAAAAAAAAAAAAAAAAAAAAAAAAAA==

> <PUBCHEM_IUPAC_OPENEYE_NAME>
butyl (2S)-5-oxopyrrolidine-2-carboxylate

> <PUBCHEM_IUPAC_CAS_NAME>
(2S)-5-oxo-2-pyrrolidinecarboxylic acid butyl ester

> <PUBCHEM_IUPAC_NAME>
butyl (2S)-5-oxopyrrolidine-2-carboxylate

> <PUBCHEM_IUPAC_SYSTEMATIC_NAME>
butyl (2S)-5-oxidanylidenepyrrolidine-2-carboxylate

> <PUBCHEM_IUPAC_TRADITIONAL_NAME>
(2S)-5-ketopyrrolidine-2-carboxylic acid butyl ester

> <PUBCHEM_IUPAC_INCHI>
InChI=1S/C9H15NO3/c1-2-3-6-13-9(12)7-4-5-8(11)10-7/h7H,2-6H2,1H3,(H,10,11)/t7-/m0/s1

> <PUBCHEM_IUPAC_INCHIKEY>
QBBAJUQOYIURHA-ZETCQYMHSA-N

> <PUBCHEM_XLOGP3_AA>
0.8

> <PUBCHEM_EXACT_MASS>
185.105

> <PUBCHEM_MOLECULAR_FORMULA>
C9H15NO3

> <PUBCHEM_MOLECULAR_WEIGHT>
185.223

> <PUBCHEM_OPENEYE_CAN_SMILES>
CCCCOC(=O)C1CCC(=O)N1

> <PUBCHEM_OPENEYE_ISO_SMILES>
CCCCOC(=O)[C@@H]1CCC(=O)N1

> <PUBCHEM_CACTVS_TPSA>
55.4

> <PUBCHEM_MONOISOTOPIC_WEIGHT>
185.105

> <PUBCHEM_TOTAL_CHARGE>
0

> <PUBCHEM_HEAVY_ATOM_COUNT>
13

> <PUBCHEM_ATOM_DEF_STEREO_COUNT>
1

> <PUBCHEM_ATOM_UDEF_STEREO_COUNT>
0

> <PUBCHEM_BOND_DEF_STEREO_COUNT>
0

> <PUBCHEM_BOND_UDEF_STEREO_COUNT>
0

> <PUBCHEM_ISOTOPIC_ATOM_COUNT>
0

> <PUBCHEM_COMPONENT_COUNT>
1

> <PUBCHEM_CACTVS_TAUTO_COUNT>
3

> <PUBCHEM_COORDINATE_TYPE>
1
5
255

> <PUBCHEM_BONDANNOTATIONS>
5  9  5

$$$$
