21582652
  -OEChem-12071809342D

114120  0     1  0  0  0  0  0999 V2000
    9.4651   -2.7765    0.0000 O   0  0  0  0  0  0  0  0  0  0  0  0
    8.0514    4.9248    0.0000 O   0  0  0  0  0  0  0  0  0  0  0  0
    7.7331   -2.7765    0.0000 O   0  0  0  0  0  0  0  0  0  0  0  0
    9.4651   -4.7765    0.0000 O   0  0  0  0  0  0  0  0  0  0  0  0
    6.0010   -4.7765    0.0000 O   0  0  0  0  0  0  0  0  0  0  0  0
    7.7331   -5.7765    0.0000 O   0  0  0  0  0  0  0  0  0  0  0  0
   10.3312   -3.2765    0.0000 O   0  0  0  0  0  0  0  0  0  0  0  0
    6.0010   -1.7765    0.0000 O   0  0  0  0  0  0  0  0  0  0  0  0
    5.1350   -3.2765    0.0000 O   0  0  0  0  0  0  0  0  0  0  0  0
   11.1972   -5.7765    0.0000 O   0  0  0  0  0  0  0  0  0  0  0  0
   12.9292   -4.7765    0.0000 O   0  0  0  0  0  0  0  0  0  0  0  0
    4.2690   -5.7765    0.0000 O   0  0  0  0  0  0  0  0  0  0  0  0
   12.9292   -2.7765    0.0000 O   0  0  0  0  0  0  0  0  0  0  0  0
    2.5369   -4.7765    0.0000 O   0  0  0  0  0  0  0  0  0  0  0  0
    2.5369   -2.7765    0.0000 O   0  0  0  0  0  0  0  0  0  0  0  0
    9.5021    1.4204    0.0000 C   0  0  1  0  0  0  0  0  0  0  0  0
   10.3662    1.9238    0.0000 C   0  0  2  0  0  0  0  0  0  0  0  0
   10.3623    2.9238    0.0000 C   0  0  1  0  0  0  0  0  0  0  0  0
    9.4944    3.4204    0.0000 C   0  0  2  0  0  0  0  0  0  0  0  0
    9.4901    0.3789    0.0000 C   0  0  2  0  0  0  0  0  0  0  0  0
    8.6342    1.9171    0.0000 C   0  0  0  0  0  0  0  0  0  0  0  0
    8.6303    2.9171    0.0000 C   0  0  0  0  0  0  0  0  0  0  0  0
   11.2781    1.4204    0.0000 C   0  0  0  0  0  0  0  0  0  0  0  0
   10.3901   -0.1454    0.0000 C   0  0  0  0  0  0  0  0  0  0  0  0
   11.0968    3.5937    0.0000 C   0  0  0  0  0  0  0  0  0  0  0  0
    8.5402   -0.1454    0.0000 C   0  0  0  0  0  0  0  0  0  0  0  0
    9.6999    4.3930    0.0000 C   0  0  0  0  0  0  0  0  0  0  0  0
   11.2902    0.3789    0.0000 C   0  0  0  0  0  0  0  0  0  0  0  0
    8.6264    3.9171    0.0000 C   0  0  0  0  0  0  0  0  0  0  0  0
    8.6260    0.8822    0.0000 C   0  0  0  0  0  0  0  0  0  0  0  0
   10.4027   -1.2304    0.0000 C   0  0  0  0  0  0  0  0  0  0  0  0
   10.6882    4.4999    0.0000 C   0  0  0  0  0  0  0  0  0  0  0  0
    8.5276   -1.2304    0.0000 C   0  0  0  0  0  0  0  0  0  0  0  0
    9.4651   -1.7765    0.0000 C   0  0  2  0  0  0  0  0  0  0  0  0
    9.0292    5.1348    0.0000 C   0  0  0  0  0  0  0  0  0  0  0  0
    9.3361    6.0865    0.0000 C   0  0  0  0  0  0  0  0  0  0  0  0
    8.5991   -3.2765    0.0000 C   0  0  2  0  0  0  0  0  0  0  0  0
    8.5991   -4.2765    0.0000 C   0  0  1  0  0  0  0  0  0  0  0  0
    7.7331   -4.7765    0.0000 C   0  0  2  0  0  0  0  0  0  0  0  0
    6.8671   -4.2765    0.0000 C   0  0  1  0  0  0  0  0  0  0  0  0
    6.8671   -3.2765    0.0000 C   0  0  1  0  0  0  0  0  0  0  0  0
    6.0010   -2.7765    0.0000 C   0  0  0  0  0  0  0  0  0  0  0  0
   10.3312   -4.2765    0.0000 C   0  0  2  0  0  0  0  0  0  0  0  0
   11.1972   -4.7765    0.0000 C   0  0  1  0  0  0  0  0  0  0  0  0
    5.1350   -4.2765    0.0000 C   0  0  2  0  0  0  0  0  0  0  0  0
   12.0632   -4.2765    0.0000 C   0  0  1  0  0  0  0  0  0  0  0  0
    4.2690   -4.7765    0.0000 C   0  0  1  0  0  0  0  0  0  0  0  0
   11.1972   -2.7765    0.0000 C   0  0  2  0  0  0  0  0  0  0  0  0
   12.0632   -3.2765    0.0000 C   0  0  2  0  0  0  0  0  0  0  0  0
    3.4030   -4.2765    0.0000 C   0  0  1  0  0  0  0  0  0  0  0  0
    4.2690   -2.7765    0.0000 C   0  0  2  0  0  0  0  0  0  0  0  0
    3.4030   -3.2765    0.0000 C   0  0  2  0  0  0  0  0  0  0  0  0
   11.1972   -1.7765    0.0000 C   0  0  0  0  0  0  0  0  0  0  0  0
    4.2690   -1.7765    0.0000 C   0  0  0  0  0  0  0  0  0  0  0  0
   10.2366    0.9926    0.0000 H   0  0  0  0  0  0  0  0  0  0  0  0
   11.0974    2.3572    0.0000 H   0  0  0  0  0  0  0  0  0  0  0  0
   11.1406    2.5820    0.0000 H   0  0  0  0  0  0  0  0  0  0  0  0
    8.0232    2.0224    0.0000 H   0  0  0  0  0  0  0  0  0  0  0  0
    8.4244    1.3337    0.0000 H   0  0  0  0  0  0  0  0  0  0  0  0
    8.4160    3.4989    0.0000 H   0  0  0  0  0  0  0  0  0  0  0  0
    8.0201    2.8071    0.0000 H   0  0  0  0  0  0  0  0  0  0  0  0
   11.8902    1.3214    0.0000 H   0  0  0  0  0  0  0  0  0  0  0  0
   11.4804    2.0065    0.0000 H   0  0  0  0  0  0  0  0  0  0  0  0
   11.4642    3.0942    0.0000 H   0  0  0  0  0  0  0  0  0  0  0  0
   11.6321    3.9065    0.0000 H   0  0  0  0  0  0  0  0  0  0  0  0
    8.3379    0.4406    0.0000 H   0  0  0  0  0  0  0  0  0  0  0  0
    7.9281   -0.2444    0.0000 H   0  0  0  0  0  0  0  0  0  0  0  0
   11.8295    0.0730    0.0000 H   0  0  0  0  0  0  0  0  0  0  0  0
    8.9344    4.4552    0.0000 H   0  0  0  0  0  0  0  0  0  0  0  0
    8.0883    4.2250    0.0000 H   0  0  0  0  0  0  0  0  0  0  0  0
    8.3185    3.3789    0.0000 H   0  0  0  0  0  0  0  0  0  0  0  0
    8.9380    1.4179    0.0000 H   0  0  0  0  0  0  0  0  0  0  0  0
    8.0902    1.1943    0.0000 H   0  0  0  0  0  0  0  0  0  0  0  0
    8.3139    0.3465    0.0000 H   0  0  0  0  0  0  0  0  0  0  0  0
   10.6185   -1.8116    0.0000 H   0  0  0  0  0  0  0  0  0  0  0  0
   11.0123   -1.1172    0.0000 H   0  0  0  0  0  0  0  0  0  0  0  0
   10.9961    5.0380    0.0000 H   0  0  0  0  0  0  0  0  0  0  0  0
    7.9180   -1.1172    0.0000 H   0  0  0  0  0  0  0  0  0  0  0  0
    8.3118   -1.8116    0.0000 H   0  0  0  0  0  0  0  0  0  0  0  0
   10.0027   -2.0854    0.0000 H   0  0  0  0  0  0  0  0  0  0  0  0
    9.9262    5.8961    0.0000 H   0  0  0  0  0  0  0  0  0  0  0  0
    9.5265    6.6765    0.0000 H   0  0  0  0  0  0  0  0  0  0  0  0
    8.7461    6.2768    0.0000 H   0  0  0  0  0  0  0  0  0  0  0  0
    8.5991   -2.6565    0.0000 H   0  0  0  0  0  0  0  0  0  0  0  0
    8.5991   -4.8965    0.0000 H   0  0  0  0  0  0  0  0  0  0  0  0
    7.1962   -5.0865    0.0000 H   0  0  0  0  0  0  0  0  0  0  0  0
    6.3301   -3.9665    0.0000 H   0  0  0  0  0  0  0  0  0  0  0  0
    6.8671   -2.6565    0.0000 H   0  0  0  0  0  0  0  0  0  0  0  0
    5.3905   -2.6688    0.0000 H   0  0  0  0  0  0  0  0  0  0  0  0
    5.7890   -3.3591    0.0000 H   0  0  0  0  0  0  0  0  0  0  0  0
    9.7942   -3.9665    0.0000 H   0  0  0  0  0  0  0  0  0  0  0  0
    7.1962   -6.0865    0.0000 H   0  0  0  0  0  0  0  0  0  0  0  0
   11.7341   -5.0865    0.0000 H   0  0  0  0  0  0  0  0  0  0  0  0
    5.1350   -4.8965    0.0000 H   0  0  0  0  0  0  0  0  0  0  0  0
   12.6002   -3.9665    0.0000 H   0  0  0  0  0  0  0  0  0  0  0  0
    3.7320   -5.0865    0.0000 H   0  0  0  0  0  0  0  0  0  0  0  0
   10.6603   -2.4665    0.0000 H   0  0  0  0  0  0  0  0  0  0  0  0
   12.0632   -2.6565    0.0000 H   0  0  0  0  0  0  0  0  0  0  0  0
    2.8660   -3.9665    0.0000 H   0  0  0  0  0  0  0  0  0  0  0  0
    5.4641   -1.4665    0.0000 H   0  0  0  0  0  0  0  0  0  0  0  0
    4.8059   -2.4665    0.0000 H   0  0  0  0  0  0  0  0  0  0  0  0
    3.4030   -2.6565    0.0000 H   0  0  0  0  0  0  0  0  0  0  0  0
   11.7341   -6.0865    0.0000 H   0  0  0  0  0  0  0  0  0  0  0  0
   11.8172   -1.7765    0.0000 H   0  0  0  0  0  0  0  0  0  0  0  0
   11.1972   -1.1565    0.0000 H   0  0  0  0  0  0  0  0  0  0  0  0
   10.5772   -1.7765    0.0000 H   0  0  0  0  0  0  0  0  0  0  0  0
   13.4662   -4.4665    0.0000 H   0  0  0  0  0  0  0  0  0  0  0  0
    3.7320   -6.0865    0.0000 H   0  0  0  0  0  0  0  0  0  0  0  0
    4.8890   -1.7765    0.0000 H   0  0  0  0  0  0  0  0  0  0  0  0
    4.2690   -1.1565    0.0000 H   0  0  0  0  0  0  0  0  0  0  0  0
    3.6490   -1.7765    0.0000 H   0  0  0  0  0  0  0  0  0  0  0  0
   13.4662   -3.0865    0.0000 H   0  0  0  0  0  0  0  0  0  0  0  0
    2.0000   -4.4665    0.0000 H   0  0  0  0  0  0  0  0  0  0  0  0
    2.5369   -2.1565    0.0000 H   0  0  0  0  0  0  0  0  0  0  0  0
 34  1  1  1  0  0  0
 37  1  1  1  0  0  0
  2 35  2  0  0  0  0
  3 37  1  0  0  0  0
  3 41  1  0  0  0  0
 38  4  1  6  0  0  0
 43  4  1  6  0  0  0
 40  5  1  6  0  0  0
 45  5  1  1  0  0  0
 39  6  1  1  0  0  0
  6 92  1  0  0  0  0
  7 43  1  0  0  0  0
  7 48  1  0  0  0  0
  8 42  1  0  0  0  0
  8100  1  0  0  0  0
  9 45  1  0  0  0  0
  9 51  1  0  0  0  0
 44 10  1  1  0  0  0
 10103  1  0  0  0  0
 46 11  1  1  0  0  0
 11107  1  0  0  0  0
 47 12  1  6  0  0  0
 12108  1  0  0  0  0
 49 13  1  6  0  0  0
 13112  1  0  0  0  0
 50 14  1  6  0  0  0
 14113  1  0  0  0  0
 52 15  1  1  0  0  0
 15114  1  0  0  0  0
 16 17  1  0  0  0  0
 16 20  1  0  0  0  0
 16 21  1  0  0  0  0
 16 55  1  6  0  0  0
 17 18  1  0  0  0  0
 17 23  1  0  0  0  0
 17 56  1  1  0  0  0
 18 19  1  0  0  0  0
 18 25  1  0  0  0  0
 18 57  1  6  0  0  0
 19 22  1  0  0  0  0
 19 27  1  0  0  0  0
 19 29  1  1  0  0  0
 20 24  1  0  0  0  0
 20 26  1  0  0  0  0
 20 30  1  1  0  0  0
 21 22  1  0  0  0  0
 21 58  1  0  0  0  0
 21 59  1  0  0  0  0
 22 60  1  0  0  0  0
 22 61  1  0  0  0  0
 23 28  1  0  0  0  0
 23 62  1  0  0  0  0
 23 63  1  0  0  0  0
 24 28  2  0  0  0  0
 24 31  1  0  0  0  0
 25 32  1  0  0  0  0
 25 64  1  0  0  0  0
 25 65  1  0  0  0  0
 26 33  1  0  0  0  0
 26 66  1  0  0  0  0
 26 67  1  0  0  0  0
 27 32  2  0  0  0  0
 27 35  1  0  0  0  0
 28 68  1  0  0  0  0
 29 69  1  0  0  0  0
 29 70  1  0  0  0  0
 29 71  1  0  0  0  0
 30 72  1  0  0  0  0
 30 73  1  0  0  0  0
 30 74  1  0  0  0  0
 31 34  1  0  0  0  0
 31 75  1  0  0  0  0
 31 76  1  0  0  0  0
 32 77  1  0  0  0  0
 33 34  1  0  0  0  0
 33 78  1  0  0  0  0
 33 79  1  0  0  0  0
 34 80  1  0  0  0  0
 35 36  1  0  0  0  0
 36 81  1  0  0  0  0
 36 82  1  0  0  0  0
 36 83  1  0  0  0  0
 37 38  1  0  0  0  0
 37 84  1  0  0  0  0
 38 39  1  0  0  0  0
 38 85  1  0  0  0  0
 39 40  1  0  0  0  0
 39 86  1  0  0  0  0
 40 41  1  0  0  0  0
 40 87  1  0  0  0  0
 41 42  1  1  0  0  0
 41 88  1  0  0  0  0
 42 89  1  0  0  0  0
 42 90  1  0  0  0  0
 43 44  1  0  0  0  0
 43 91  1  0  0  0  0
 44 46  1  0  0  0  0
 44 93  1  0  0  0  0
 45 47  1  0  0  0  0
 45 94  1  0  0  0  0
 46 49  1  0  0  0  0
 46 95  1  0  0  0  0
 47 50  1  0  0  0  0
 47 96  1  0  0  0  0
 48 49  1  0  0  0  0
 48 53  1  1  0  0  0
 48 97  1  0  0  0  0
 49 98  1  0  0  0  0
 50 52  1  0  0  0  0
 50 99  1  0  0  0  0
 51 52  1  0  0  0  0
 51 54  1  6  0  0  0
 51101  1  0  0  0  0
 52102  1  0  0  0  0
 53104  1  0  0  0  0
 53105  1  0  0  0  0
 53106  1  0  0  0  0
 54109  1  0  0  0  0
 54110  1  0  0  0  0
 54111  1  0  0  0  0
M  END
> <PUBCHEM_COMPOUND_CID>
21582652

> <PUBCHEM_COMPOUND_CANONICALIZED>
1

> <PUBCHEM_CACTVS_COMPLEXITY>
1440

> <PUBCHEM_CACTVS_HBOND_ACCEPTOR>
15

> <PUBCHEM_CACTVS_HBOND_DONOR>
8

> <PUBCHEM_CACTVS_ROTATABLE_BOND>
8

> <PUBCHEM_CACTVS_SUBSKEYS>
AAADcfB8PAAAAAAAAAAAAAAAAAAAAQAAAAA0aJECAAAAAECAAAAAGgAACAAADxSwgAMCCAAABgCIAqBSAAAAAAAgAAAACAEAAEgREBIAAQAiQAAFwAAPAYPI6PyPgAAAAAAAAADAAAQAACAAAAAAAAAAAA==

> <PUBCHEM_IUPAC_OPENEYE_NAME>
1-[(3S,8R,9S,10R,13S,14S)-3-[(2R,3R,4S,5S,6R)-4-hydroxy-6-(hydroxymethyl)-3,5-bis[[(2S,3R,4R,5R,6S)-3,4,5-trihydroxy-6-methyl-tetrahydropyran-2-yl]oxy]tetrahydropyran-2-yl]oxy-10,13-dimethyl-2,3,4,7,8,9,11,12,14,15-decahydro-1H-cyclopenta[a]phenanthren-17-yl]ethanone

> <PUBCHEM_IUPAC_CAS_NAME>
1-[(3S,8R,9S,10R,13S,14S)-3-[[(2R,3R,4S,5S,6R)-4-hydroxy-6-(hydroxymethyl)-3,5-bis[[(2S,3R,4R,5R,6S)-3,4,5-trihydroxy-6-methyl-2-oxanyl]oxy]-2-oxanyl]oxy]-10,13-dimethyl-2,3,4,7,8,9,11,12,14,15-decahydro-1H-cyclopenta[a]phenanthren-17-yl]ethanone

> <PUBCHEM_IUPAC_NAME>
1-[(3S,8R,9S,10R,13S,14S)-3-[(2R,3R,4S,5S,6R)-4-hydroxy-6-(hydroxymethyl)-3,5-bis[[(2S,3R,4R,5R,6S)-3,4,5-trihydroxy-6-methyloxan-2-yl]oxy]oxan-2-yl]oxy-10,13-dimethyl-2,3,4,7,8,9,11,12,14,15-decahydro-1H-cyclopenta[a]phenanthren-17-yl]ethanone

> <PUBCHEM_IUPAC_SYSTEMATIC_NAME>
1-[(3S,8R,9S,10R,13S,14S)-3-[(2R,3R,4S,5S,6R)-6-(hydroxymethyl)-3,5-bis[[(2S,3R,4R,5R,6S)-6-methyl-3,4,5-tris(oxidanyl)oxan-2-yl]oxy]-4-oxidanyl-oxan-2-yl]oxy-10,13-dimethyl-2,3,4,7,8,9,11,12,14,15-decahydro-1H-cyclopenta[a]phenanthren-17-yl]ethanone

> <PUBCHEM_IUPAC_TRADITIONAL_NAME>
1-[(3S,8R,9S,10R,13S,14S)-3-[(2R,3R,4S,5S,6R)-4-hydroxy-6-methylol-3,5-bis[[(2S,3R,4R,5R,6S)-3,4,5-trihydroxy-6-methyl-tetrahydropyran-2-yl]oxy]tetrahydropyran-2-yl]oxy-10,13-dimethyl-2,3,4,7,8,9,11,12,14,15-decahydro-1H-cyclopenta[a]phenanthren-17-yl]ethanone

> <PUBCHEM_IUPAC_INCHI>
InChI=1S/C39H60O15/c1-16(41)22-8-9-23-21-7-6-19-14-20(10-12-38(19,4)24(21)11-13-39(22,23)5)51-37-34(54-36-31(47)29(45)27(43)18(3)50-36)32(48)33(25(15-40)52-37)53-35-30(46)28(44)26(42)17(2)49-35/h6,8,17-18,20-21,23-37,40,42-48H,7,9-15H2,1-5H3/t17-,18-,20-,21-,23-,24-,25+,26-,27-,28+,29+,30+,31+,32-,33+,34+,35-,36-,37+,38-,39+/m0/s1

> <PUBCHEM_IUPAC_INCHIKEY>
OTJIOMRYLVVIJV-IZAVPGAWSA-N

> <PUBCHEM_XLOGP3_AA>
-0.4

> <PUBCHEM_EXACT_MASS>
768.393

> <PUBCHEM_MOLECULAR_FORMULA>
C39H60O15

> <PUBCHEM_MOLECULAR_WEIGHT>
768.894

> <PUBCHEM_OPENEYE_CAN_SMILES>
CC1C(C(C(C(O1)OC2C(OC(C(C2O)OC3C(C(C(C(O3)C)O)O)O)OC4CCC5(C6CCC7(C(C6CC=C5C4)CC=C7C(=O)C)C)C)CO)O)O)O

> <PUBCHEM_OPENEYE_ISO_SMILES>
C[C@H]1[C@@H]([C@H]([C@H]([C@@H](O1)O[C@@H]2[C@H](O[C@H]([C@@H]([C@H]2O)O[C@H]3[C@@H]([C@@H]([C@H]([C@@H](O3)C)O)O)O)O[C@H]4CC[C@@]5([C@H]6CC[C@]7([C@H]([C@@H]6CC=C5C4)CC=C7C(=O)C)C)C)CO)O)O)O

> <PUBCHEM_CACTVS_TPSA>
234

> <PUBCHEM_MONOISOTOPIC_WEIGHT>
768.393

> <PUBCHEM_TOTAL_CHARGE>
0

> <PUBCHEM_HEAVY_ATOM_COUNT>
54

> <PUBCHEM_ATOM_DEF_STEREO_COUNT>
21

> <PUBCHEM_ATOM_UDEF_STEREO_COUNT>
0

> <PUBCHEM_BOND_DEF_STEREO_COUNT>
0

> <PUBCHEM_BOND_UDEF_STEREO_COUNT>
0

> <PUBCHEM_ISOTOPIC_ATOM_COUNT>
0

> <PUBCHEM_COMPONENT_COUNT>
1

> <PUBCHEM_CACTVS_TAUTO_COUNT>
5

> <PUBCHEM_COORDINATE_TYPE>
1
5
255

> <PUBCHEM_BONDANNOTATIONS>
34  1  5
37  1  5
44  10  5
46  11  5
47  12  6
49  13  6
50  14  6
52  15  5
16  55  6
17  56  5
18  57  6
19  29  5
20  30  5
38  4  6
43  4  6
41  42  5
48  53  5
40  5  6
45  5  5
51  54  6
39  6  5

$$$$
