5481224
  -OEChem-11211805273D

 49 52  0     1  0  0  0  0  0999 V2000
    0.9978   -2.8052   -0.1233 O   0  0  0  0  0  0  0  0  0  0  0  0
    0.6311   -0.8723    1.1337 O   0  0  0  0  0  0  0  0  0  0  0  0
    5.0707   -2.0908   -0.1845 O   0  0  0  0  0  0  0  0  0  0  0  0
    3.2427    0.0425    0.4357 O   0  0  0  0  0  0  0  0  0  0  0  0
    3.4058   -4.2763    0.2799 O   0  0  0  0  0  0  0  0  0  0  0  0
   -1.8505    1.5466   -0.1229 O   0  0  0  0  0  0  0  0  0  0  0  0
   -1.7166   -2.3599    1.0285 O   0  0  0  0  0  0  0  0  0  0  0  0
   -4.2715   -2.6012    0.5275 O   0  0  0  0  0  0  0  0  0  0  0  0
   -6.4943    1.2790   -1.0687 O   0  0  0  0  0  0  0  0  0  0  0  0
    3.1290    2.9759   -1.9823 O   0  0  0  0  0  0  0  0  0  0  0  0
    3.6913    4.5122    0.2649 O   0  0  0  0  0  0  0  0  0  0  0  0
    3.7180   -2.0518   -0.6310 C   0  0  2  0  0  0  0  0  0  0  0  0
    2.8629   -1.3331    0.4113 C   0  0  2  0  0  0  0  0  0  0  0  0
    3.2068   -3.4694   -0.8820 C   0  0  2  0  0  0  0  0  0  0  0  0
    1.3770   -1.4423    0.0589 C   0  0  1  0  0  0  0  0  0  0  0  0
    1.7134   -3.4470   -1.1819 C   0  0  0  0  0  0  0  0  0  0  0  0
   -0.5541   -0.3242    0.6932 C   0  0  0  0  0  0  0  0  0  0  0  0
   -0.6681    0.9557    0.2939 C   0  0  0  0  0  0  0  0  0  0  0  0
   -1.7592   -1.1881    0.6785 C   0  0  0  0  0  0  0  0  0  0  0  0
   -3.0080   -0.5589    0.2222 C   0  0  0  0  0  0  0  0  0  0  0  0
   -2.9877    0.7818   -0.1560 C   0  0  0  0  0  0  0  0  0  0  0  0
    0.4746    1.8863    0.2830 C   0  0  0  0  0  0  0  0  0  0  0  0
   -4.1978   -1.2892    0.1688 C   0  0  0  0  0  0  0  0  0  0  0  0
   -4.1596    1.4021   -0.5902 C   0  0  0  0  0  0  0  0  0  0  0  0
    1.2742    1.9967   -0.8549 C   0  0  0  0  0  0  0  0  0  0  0  0
    0.7575    2.6574    1.4108 C   0  0  0  0  0  0  0  0  0  0  0  0
   -5.3684   -0.6667   -0.2663 C   0  0  0  0  0  0  0  0  0  0  0  0
   -5.3495    0.6763   -0.6451 C   0  0  0  0  0  0  0  0  0  0  0  0
    2.3557    2.8774   -0.8652 C   0  0  0  0  0  0  0  0  0  0  0  0
    1.8389    3.5382    1.4007 C   0  0  0  0  0  0  0  0  0  0  0  0
    2.6381    3.6482    0.2627 C   0  0  0  0  0  0  0  0  0  0  0  0
    3.7118   -1.4841   -1.5694 H   0  0  0  0  0  0  0  0  0  0  0  0
    3.0468   -1.7337    1.4157 H   0  0  0  0  0  0  0  0  0  0  0  0
    3.7579   -3.9417   -1.7023 H   0  0  0  0  0  0  0  0  0  0  0  0
    1.1880   -0.8979   -0.8766 H   0  0  0  0  0  0  0  0  0  0  0  0
    1.4998   -2.9354   -2.1273 H   0  0  0  0  0  0  0  0  0  0  0  0
    1.3254   -4.4685   -1.2517 H   0  0  0  0  0  0  0  0  0  0  0  0
    5.0861   -2.4862    0.7033 H   0  0  0  0  0  0  0  0  0  0  0  0
    4.1923    0.0792    0.6420 H   0  0  0  0  0  0  0  0  0  0  0  0
    4.3644   -4.3872    0.3972 H   0  0  0  0  0  0  0  0  0  0  0  0
   -4.1473    2.4483   -0.8855 H   0  0  0  0  0  0  0  0  0  0  0  0
    1.0521    1.4021   -1.7384 H   0  0  0  0  0  0  0  0  0  0  0  0
    0.1435    2.5826    2.3050 H   0  0  0  0  0  0  0  0  0  0  0  0
   -6.2954   -1.2339   -0.3083 H   0  0  0  0  0  0  0  0  0  0  0  0
    2.0537    4.1357    2.2824 H   0  0  0  0  0  0  0  0  0  0  0  0
   -3.4022   -2.9276    0.8057 H   0  0  0  0  0  0  0  0  0  0  0  0
   -7.2197    0.6315   -1.0436 H   0  0  0  0  0  0  0  0  0  0  0  0
    2.7873    2.3671   -2.6595 H   0  0  0  0  0  0  0  0  0  0  0  0
    4.1324    4.4588   -0.6007 H   0  0  0  0  0  0  0  0  0  0  0  0
  1 15  1  0  0  0  0
  1 16  1  0  0  0  0
  2 15  1  0  0  0  0
  2 17  1  0  0  0  0
  3 12  1  0  0  0  0
  3 38  1  0  0  0  0
  4 13  1  0  0  0  0
  4 39  1  0  0  0  0
  5 14  1  0  0  0  0
  5 40  1  0  0  0  0
  6 18  1  0  0  0  0
  6 21  1  0  0  0  0
  7 19  2  0  0  0  0
  8 23  1  0  0  0  0
  8 46  1  0  0  0  0
  9 28  1  0  0  0  0
  9 47  1  0  0  0  0
 10 29  1  0  0  0  0
 10 48  1  0  0  0  0
 11 31  1  0  0  0  0
 11 49  1  0  0  0  0
 12 13  1  0  0  0  0
 12 14  1  0  0  0  0
 12 32  1  0  0  0  0
 13 15  1  0  0  0  0
 13 33  1  0  0  0  0
 14 16  1  0  0  0  0
 14 34  1  0  0  0  0
 15 35  1  0  0  0  0
 16 36  1  0  0  0  0
 16 37  1  0  0  0  0
 17 18  2  0  0  0  0
 17 19  1  0  0  0  0
 18 22  1  0  0  0  0
 19 20  1  0  0  0  0
 20 21  1  0  0  0  0
 20 23  2  0  0  0  0
 21 24  2  0  0  0  0
 22 25  2  0  0  0  0
 22 26  1  0  0  0  0
 23 27  1  0  0  0  0
 24 28  1  0  0  0  0
 24 41  1  0  0  0  0
 25 29  1  0  0  0  0
 25 42  1  0  0  0  0
 26 30  2  0  0  0  0
 26 43  1  0  0  0  0
 27 28  2  0  0  0  0
 27 44  1  0  0  0  0
 29 31  2  0  0  0  0
 30 31  1  0  0  0  0
 30 45  1  0  0  0  0
M  END
> <PUBCHEM_COMPOUND_CID>
5481224

> <PUBCHEM_CONFORMER_RMSD>
0.8

> <PUBCHEM_CONFORMER_DIVERSEORDER>
1
39
48
59
47
38
60
45
32
44
57
25
18
50
41
53
14
13
29
34
42
37
58
35
46
8
2
20
54
23
31
30
43
6
61
26
27
49
55
7
22
28
56
52
33
12
19
21
15
24
9
5
17
36
10
40
11
51
16
4
3

> <PUBCHEM_MMFF94_PARTIAL_CHARGES>
43
1 -0.56
10 -0.53
11 -0.53
12 0.28
13 0.28
14 0.28
15 0.56
16 0.28
17 0.09
18 0.05
19 0.47
2 -0.36
20 0.09
21 0.08
22 0.03
23 0.08
24 -0.15
25 -0.15
26 -0.15
27 -0.15
28 0.08
29 0.08
3 -0.68
30 -0.15
31 0.08
38 0.4
39 0.4
4 -0.68
40 0.4
41 0.15
42 0.15
43 0.15
44 0.15
45 0.15
46 0.45
47 0.45
48 0.45
49 0.45
5 -0.68
6 -0.16
7 -0.57
8 -0.53
9 -0.53

> <PUBCHEM_EFFECTIVE_ROTOR_COUNT>
4.2

> <PUBCHEM_PHARMACOPHORE_FEATURES>
18
1 1 acceptor
1 10 donor
1 11 donor
1 2 acceptor
1 3 acceptor
1 3 donor
1 4 acceptor
1 4 donor
1 5 acceptor
1 5 donor
1 6 acceptor
1 7 acceptor
1 8 donor
1 9 donor
6 1 12 13 14 15 16 rings
6 20 21 23 24 27 28 rings
6 22 25 26 29 30 31 rings
6 6 17 18 19 20 21 rings

> <PUBCHEM_HEAVY_ATOM_COUNT>
31

> <PUBCHEM_ATOM_DEF_STEREO_COUNT>
4

> <PUBCHEM_ATOM_UDEF_STEREO_COUNT>
0

> <PUBCHEM_BOND_DEF_STEREO_COUNT>
0

> <PUBCHEM_BOND_UDEF_STEREO_COUNT>
0

> <PUBCHEM_ISOTOPIC_ATOM_COUNT>
0

> <PUBCHEM_COMPONENT_COUNT>
1

> <PUBCHEM_CACTVS_TAUTO_COUNT>
162

> <PUBCHEM_CONFORMER_ID>
0053A30800000001

> <PUBCHEM_MMFF94_ENERGY>
99.4919

> <PUBCHEM_FEATURE_SELFOVERLAP>
91.455

> <PUBCHEM_SHAPE_FINGERPRINT>
10190108 129 17403190682182721051
1100329 8 18052827948950446529
11045515 52 18046914779383686348
11115154 58 17342629221316655733
11963148 33 17613994518636870891
12422481 6 18116973667567569600
12788726 201 17686623441871349042
13004483 165 18052247406494280934
131258 43 17987537931028210526
13533116 47 18343017814163347337
13540713 4 18187648038050627355
138480 1 18411983525125887040
140371 6 18341620252325205730
14508225 48 18124597479188426870
14866123 147 17334217827791470395
15230672 131 18049439546952443792
15439362 3 18410006663159323021
15664445 248 18337383847362045594
15775530 1 17825692180834204331
15927050 60 17982450701005775718
167882 2 18338517546618215236
20028762 73 17046276047900047575
20600515 1 17977637858779022728
20642791 13 18055352431725704000
20691752 17 16733251439669977937
20775438 99 18123725777517695071
21120745 212 17840604599934574508
22149856 69 18262532506922703387
22393880 68 18126857211822350605
23559900 14 18411131424962668187
24771750 20 18262813989070687141
3298306 158 18196377133081477844
38695281 34 18197212766456232472
4280585 95 18191299386484268922
460360 51 18338252483181197361
46194498 28 18187362112981422245
495365 180 18199740513238967025
5265222 85 17687474876921850652
532947 4 18341336703459467984
59755656 215 18336545018590099308
6443956 14 18341049627518414240
6669772 16 17984709072003827548
9709674 26 18408886244026298115
9981440 41 18049156967060479241

> <PUBCHEM_SHAPE_MULTIPOLES>
573.4
10.24
5.73
1.16
13.13
0.87
0.12
-1.93
2.78
-9.24
0.19
-0.39
0.5
1.08

> <PUBCHEM_SHAPE_SELFOVERLAP>
1270.208

> <PUBCHEM_SHAPE_VOLUME>
302.6

> <PUBCHEM_COORDINATE_TYPE>
2
5
10

$$$$
