3082069
  -OEChem-11211805333D

 53 56  0     1  0  0  0  0  0999 V2000
    5.3822    0.7537    0.9818 O   0  0  0  0  0  0  0  0  0  0  0  0
   -1.0643   -0.6779    0.1897 C   0  0  1  0  0  0  0  0  0  0  0  0
    0.2906   -0.6795   -0.6343 C   0  0  1  0  0  0  0  0  0  0  0  0
    1.0642    0.6832   -0.5862 C   0  0  2  0  0  0  0  0  0  0  0  0
   -1.9118    0.5457   -0.3309 C   0  0  1  0  0  0  0  0  0  0  0  0
    0.1693    1.8890   -0.8790 C   0  0  0  0  0  0  0  0  0  0  0  0
   -3.4254    0.5830    0.0891 C   0  0  0  0  0  0  0  0  0  0  0  0
    2.2101    0.6057   -1.6189 C   0  0  0  0  0  0  0  0  0  0  0  0
   -1.1564    1.8753   -0.1173 C   0  0  0  0  0  0  0  0  0  0  0  0
    1.2315   -1.8932   -0.3555 C   0  0  0  0  0  0  0  0  0  0  0  0
    3.1928   -0.3271   -0.9118 C   0  0  2  0  0  0  0  0  0  0  0  0
   -1.8425   -1.9874   -0.1145 C   0  0  0  0  0  0  0  0  0  0  0  0
    2.6369   -1.7578   -0.9809 C   0  0  0  0  0  0  0  0  0  0  0  0
    1.9120    0.8271    0.6630 C   0  0  0  0  0  0  0  0  0  0  0  0
   -4.0699   -0.7993   -0.1828 C   0  0  0  0  0  0  0  0  0  0  0  0
   -0.7903   -0.6286    1.7125 C   0  0  0  0  0  0  0  0  0  0  0  0
   -3.2871   -1.9778    0.3803 C   0  0  0  0  0  0  0  0  0  0  0  0
    3.1074    0.2427    0.4821 C   0  0  0  0  0  0  0  0  0  0  0  0
   -3.6726    1.0114    1.5475 C   0  0  0  0  0  0  0  0  0  0  0  0
   -4.1886    1.6059   -0.7959 C   0  0  0  0  0  0  0  0  0  0  0  0
    4.2119    0.1060    1.4619 C   0  0  0  0  0  0  0  0  0  0  0  0
   -0.0095   -0.8039   -1.6880 H   0  0  0  0  0  0  0  0  0  0  0  0
   -1.9504    0.4125   -1.4254 H   0  0  0  0  0  0  0  0  0  0  0  0
   -0.0583    1.9136   -1.9536 H   0  0  0  0  0  0  0  0  0  0  0  0
    0.6967    2.8264   -0.6601 H   0  0  0  0  0  0  0  0  0  0  0  0
    2.6666    1.5917   -1.7907 H   0  0  0  0  0  0  0  0  0  0  0  0
    1.8864    0.2242   -2.5944 H   0  0  0  0  0  0  0  0  0  0  0  0
   -0.9796    2.0702    0.9445 H   0  0  0  0  0  0  0  0  0  0  0  0
   -1.7472    2.7202   -0.4844 H   0  0  0  0  0  0  0  0  0  0  0  0
    0.7728   -2.8172   -0.7263 H   0  0  0  0  0  0  0  0  0  0  0  0
    1.3687   -2.0370    0.7203 H   0  0  0  0  0  0  0  0  0  0  0  0
    4.1918   -0.2521   -1.3507 H   0  0  0  0  0  0  0  0  0  0  0  0
   -1.3302   -2.8486    0.3317 H   0  0  0  0  0  0  0  0  0  0  0  0
   -1.8544   -2.1632   -1.1984 H   0  0  0  0  0  0  0  0  0  0  0  0
    3.3205   -2.4550   -0.4814 H   0  0  0  0  0  0  0  0  0  0  0  0
    2.5850   -2.0683   -2.0322 H   0  0  0  0  0  0  0  0  0  0  0  0
    1.5898    1.2955    1.5811 H   0  0  0  0  0  0  0  0  0  0  0  0
   -4.1644   -0.9472   -1.2675 H   0  0  0  0  0  0  0  0  0  0  0  0
   -5.0922   -0.8262    0.2156 H   0  0  0  0  0  0  0  0  0  0  0  0
   -0.4067    0.3347    2.0491 H   0  0  0  0  0  0  0  0  0  0  0  0
   -1.6791   -0.8333    2.3081 H   0  0  0  0  0  0  0  0  0  0  0  0
   -0.0726   -1.3917    2.0243 H   0  0  0  0  0  0  0  0  0  0  0  0
   -3.7741   -2.9094    0.0669 H   0  0  0  0  0  0  0  0  0  0  0  0
   -3.3266   -1.9735    1.4739 H   0  0  0  0  0  0  0  0  0  0  0  0
   -3.1700    1.9543    1.7842 H   0  0  0  0  0  0  0  0  0  0  0  0
   -4.7436    1.1684    1.7267 H   0  0  0  0  0  0  0  0  0  0  0  0
   -3.3566    0.2662    2.2756 H   0  0  0  0  0  0  0  0  0  0  0  0
   -3.9053    2.6383   -0.5684 H   0  0  0  0  0  0  0  0  0  0  0  0
   -4.0016    1.4309   -1.8613 H   0  0  0  0  0  0  0  0  0  0  0  0
   -5.2712    1.5311   -0.6378 H   0  0  0  0  0  0  0  0  0  0  0  0
    4.4477   -0.9503    1.6238 H   0  0  0  0  0  0  0  0  0  0  0  0
    3.9517    0.5419    2.4319 H   0  0  0  0  0  0  0  0  0  0  0  0
    5.1689    1.6944    0.8568 H   0  0  0  0  0  0  0  0  0  0  0  0
  1 21  1  0  0  0  0
  1 53  1  0  0  0  0
  2  3  1  0  0  0  0
  2  5  1  0  0  0  0
  2 12  1  0  0  0  0
  2 16  1  0  0  0  0
  3  4  1  0  0  0  0
  3 10  1  0  0  0  0
  3 22  1  0  0  0  0
  4  6  1  0  0  0  0
  4  8  1  0  0  0  0
  4 14  1  0  0  0  0
  5  7  1  0  0  0  0
  5  9  1  0  0  0  0
  5 23  1  0  0  0  0
  6  9  1  0  0  0  0
  6 24  1  0  0  0  0
  6 25  1  0  0  0  0
  7 15  1  0  0  0  0
  7 19  1  0  0  0  0
  7 20  1  0  0  0  0
  8 11  1  0  0  0  0
  8 26  1  0  0  0  0
  8 27  1  0  0  0  0
  9 28  1  0  0  0  0
  9 29  1  0  0  0  0
 10 13  1  0  0  0  0
 10 30  1  0  0  0  0
 10 31  1  0  0  0  0
 11 13  1  0  0  0  0
 11 18  1  0  0  0  0
 11 32  1  0  0  0  0
 12 17  1  0  0  0  0
 12 33  1  0  0  0  0
 12 34  1  0  0  0  0
 13 35  1  0  0  0  0
 13 36  1  0  0  0  0
 14 18  2  0  0  0  0
 14 37  1  0  0  0  0
 15 17  1  0  0  0  0
 15 38  1  0  0  0  0
 15 39  1  0  0  0  0
 16 40  1  0  0  0  0
 16 41  1  0  0  0  0
 16 42  1  0  0  0  0
 17 43  1  0  0  0  0
 17 44  1  0  0  0  0
 18 21  1  0  0  0  0
 19 45  1  0  0  0  0
 19 46  1  0  0  0  0
 19 47  1  0  0  0  0
 20 48  1  0  0  0  0
 20 49  1  0  0  0  0
 20 50  1  0  0  0  0
 21 51  1  0  0  0  0
 21 52  1  0  0  0  0
M  END
> <PUBCHEM_COMPOUND_CID>
3082069

> <PUBCHEM_CONFORMER_RMSD>
0.6

> <PUBCHEM_CONFORMER_DIVERSEORDER>
1

> <PUBCHEM_MMFF94_PARTIAL_CHARGES>
8
1 -0.68
11 0.14
14 -0.29
18 -0.28
21 0.42
37 0.15
4 0.14
53 0.4

> <PUBCHEM_EFFECTIVE_ROTOR_COUNT>
2.8

> <PUBCHEM_PHARMACOPHORE_FEATURES>
6
1 1 acceptor
1 1 donor
3 7 19 20 hydrophobe
6 2 3 4 5 6 9 rings
6 2 5 7 12 15 17 rings
8 3 4 8 10 11 13 14 18 rings

> <PUBCHEM_HEAVY_ATOM_COUNT>
21

> <PUBCHEM_ATOM_DEF_STEREO_COUNT>
4

> <PUBCHEM_ATOM_UDEF_STEREO_COUNT>
1

> <PUBCHEM_BOND_DEF_STEREO_COUNT>
0

> <PUBCHEM_BOND_UDEF_STEREO_COUNT>
0

> <PUBCHEM_ISOTOPIC_ATOM_COUNT>
0

> <PUBCHEM_COMPONENT_COUNT>
1

> <PUBCHEM_CACTVS_TAUTO_COUNT>
1

> <PUBCHEM_CONFORMER_ID>
002F075500000001

> <PUBCHEM_MMFF94_ENERGY>
81.989

> <PUBCHEM_FEATURE_SELFOVERLAP>
30.474

> <PUBCHEM_SHAPE_FINGERPRINT>
10062212 137 18113896087334448819
10366900 7 17774991393216795632
10646746 165 18342460343823103306
10863032 1 18131636647097526303
10948715 1 16988553632897533248
10967382 1 18265059029006605767
11132069 177 18335703819116505389
11370993 70 18131063840041394159
12173636 292 17987529130408053241
12236239 1 17530965787549746620
12382932 28 18411138038943122551
12507560 40 17917716803016541206
12553582 1 18335436659303008077
128620 24 16343704348041301919
13140716 1 18336832016836476953
13224815 77 18411707586013828871
13296908 3 17989215849426585183
13583140 156 17988914595967110251
13675066 3 17748825194008087512
14081887 123 18343298150055839985
14178342 30 18412552028282345467
14289901 80 15626226767104741421
14787075 74 17058639900970297074
15196674 1 18411140212244294183
15219456 202 18273215283185828382
15238133 3 16226610646292940333
15375358 24 18413102849073880636
15536298 74 18272092651728057583
15788980 27 17749389247757404808
16945 1 18409737231265291453
17349148 13 18335693983694216551
17834072 14 18413385440715584462
17980427 23 18187361090694978708
1813 80 16371283312940141626
18186145 218 18130517327270257879
19784866 170 18412543223963112596
200 152 16486975072389895430
20645477 70 17131835318029027542
21267235 1 18336844051424556639
21421861 104 17678447572449638330
21501502 16 18116162249418499813
22182313 1 18342187647823323871
2334 1 18048888682002239157
23402539 116 18260255356893341980
23419403 2 17690803029281778285
23557571 272 18341046397623971123
23559900 14 18340212886701526174
2748010 2 17901672566145806981
2838139 119 14404898167945974658
296302 2 17418093217354165144
3286 77 17969497298178027975
34934 24 18335974281939389935
394222 165 17389115735077069580
474 4 14978805849712070066
495365 180 17631439082032203511
5104073 3 18342462499775874043
58807428 26 18335704901453941859
633830 44 17386018234400430407
69090 78 18412824664511604199
74978 22 16878797134880092459
81228 2 18189066304053747980
90316 7 18114174220426040421
9709674 26 18413393133118478671
9981440 41 16886677515047831228

> <PUBCHEM_SHAPE_MULTIPOLES>
426.3
8.18
2.06
1.38
1.78
0.41
-0.3
-0.97
-1.87
-1.13
0.34
0.63
-0.17
0.53

> <PUBCHEM_SHAPE_SELFOVERLAP>
910.388

> <PUBCHEM_SHAPE_VOLUME>
236.6

> <PUBCHEM_COORDINATE_TYPE>
2
5
10

$$$$
