83693
  -OEChem-11211805323D

 34 33  0     1  0  0  0  0  0999 V2000
   -1.9088    0.3876   -0.5421 O   0  0  0  0  0  0  0  0  0  0  0  0
    2.1089    2.2011   -0.6214 O   0  0  0  0  0  0  0  0  0  0  0  0
    3.6871    1.2210    0.6598 O   0  0  0  0  0  0  0  0  0  0  0  0
   -1.0501   -0.6931    1.2935 O   0  0  0  0  0  0  0  0  0  0  0  0
    0.3183    0.3367   -0.2712 N   0  0  0  0  0  0  0  0  0  0  0  0
    2.1073   -1.3369   -0.1639 C   0  0  0  0  0  0  0  0  0  0  0  0
    1.5943    0.0312    0.3347 C   0  0  1  0  0  0  0  0  0  0  0  0
   -3.2333    0.0550   -0.1110 C   0  0  0  0  0  0  0  0  0  0  0  0
    3.3402   -1.8105    0.6107 C   0  0  0  0  0  0  0  0  0  0  0  0
    2.3850   -1.3648   -1.6700 C   0  0  0  0  0  0  0  0  0  0  0  0
   -3.4646    0.6704    1.2682 C   0  0  0  0  0  0  0  0  0  0  0  0
   -4.2091    0.6387   -1.1304 C   0  0  0  0  0  0  0  0  0  0  0  0
   -3.3594   -1.4668   -0.0567 C   0  0  0  0  0  0  0  0  0  0  0  0
    2.5776    1.1819    0.1399 C   0  0  0  0  0  0  0  0  0  0  0  0
   -0.8933   -0.0516    0.2599 C   0  0  0  0  0  0  0  0  0  0  0  0
    1.3157   -2.0754    0.0261 H   0  0  0  0  0  0  0  0  0  0  0  0
    1.4204   -0.0275    1.4174 H   0  0  0  0  0  0  0  0  0  0  0  0
    4.2321   -1.2283    0.3611 H   0  0  0  0  0  0  0  0  0  0  0  0
    3.5595   -2.8570    0.3711 H   0  0  0  0  0  0  0  0  0  0  0  0
    3.1740   -1.7470    1.6911 H   0  0  0  0  0  0  0  0  0  0  0  0
    3.1761   -0.6594   -1.9449 H   0  0  0  0  0  0  0  0  0  0  0  0
    2.7053   -2.3643   -1.9836 H   0  0  0  0  0  0  0  0  0  0  0  0
    1.4886   -1.1124   -2.2455 H   0  0  0  0  0  0  0  0  0  0  0  0
    0.3084    0.8580   -1.1430 H   0  0  0  0  0  0  0  0  0  0  0  0
   -3.0992    1.7034    1.3038 H   0  0  0  0  0  0  0  0  0  0  0  0
   -4.5353    0.6856    1.5049 H   0  0  0  0  0  0  0  0  0  0  0  0
   -2.9905    0.1318    2.0925 H   0  0  0  0  0  0  0  0  0  0  0  0
   -4.0133    0.2353   -2.1306 H   0  0  0  0  0  0  0  0  0  0  0  0
   -4.0878    1.7255   -1.2059 H   0  0  0  0  0  0  0  0  0  0  0  0
   -5.2502    0.4240   -0.8683 H   0  0  0  0  0  0  0  0  0  0  0  0
   -2.8736   -1.9336    0.8038 H   0  0  0  0  0  0  0  0  0  0  0  0
   -4.4140   -1.7612    0.0036 H   0  0  0  0  0  0  0  0  0  0  0  0
   -2.9335   -1.9273   -0.9558 H   0  0  0  0  0  0  0  0  0  0  0  0
    2.7621    2.9284   -0.7023 H   0  0  0  0  0  0  0  0  0  0  0  0
  1  8  1  0  0  0  0
  1 15  1  0  0  0  0
  2 14  1  0  0  0  0
  2 34  1  0  0  0  0
  3 14  2  0  0  0  0
  4 15  2  0  0  0  0
  5  7  1  0  0  0  0
  5 15  1  0  0  0  0
  5 24  1  0  0  0  0
  6  7  1  0  0  0  0
  6  9  1  0  0  0  0
  6 10  1  0  0  0  0
  6 16  1  0  0  0  0
  7 14  1  0  0  0  0
  7 17  1  0  0  0  0
  8 11  1  0  0  0  0
  8 12  1  0  0  0  0
  8 13  1  0  0  0  0
  9 18  1  0  0  0  0
  9 19  1  0  0  0  0
  9 20  1  0  0  0  0
 10 21  1  0  0  0  0
 10 22  1  0  0  0  0
 10 23  1  0  0  0  0
 11 25  1  0  0  0  0
 11 26  1  0  0  0  0
 11 27  1  0  0  0  0
 12 28  1  0  0  0  0
 12 29  1  0  0  0  0
 12 30  1  0  0  0  0
 13 31  1  0  0  0  0
 13 32  1  0  0  0  0
 13 33  1  0  0  0  0
M  END
> <PUBCHEM_COMPOUND_CID>
83693

> <PUBCHEM_CONFORMER_RMSD>
0.8

> <PUBCHEM_CONFORMER_DIVERSEORDER>
1
5
15
26
18
23
12
14
25
21
16
27
22
11
6
24
3
8
4
20
10
19
7
2
13
9
17

> <PUBCHEM_MMFF94_PARTIAL_CHARGES>
11
1 -0.43
14 0.66
15 0.78
2 -0.65
24 0.37
3 -0.57
34 0.5
4 -0.57
5 -0.73
7 0.36
8 0.28

> <PUBCHEM_EFFECTIVE_ROTOR_COUNT>
6

> <PUBCHEM_PHARMACOPHORE_FEATURES>
7
1 2 acceptor
1 3 acceptor
1 4 acceptor
1 5 donor
3 2 3 14 anion
3 6 9 10 hydrophobe
4 8 11 12 13 hydrophobe

> <PUBCHEM_HEAVY_ATOM_COUNT>
15

> <PUBCHEM_ATOM_DEF_STEREO_COUNT>
1

> <PUBCHEM_ATOM_UDEF_STEREO_COUNT>
0

> <PUBCHEM_BOND_DEF_STEREO_COUNT>
0

> <PUBCHEM_BOND_UDEF_STEREO_COUNT>
0

> <PUBCHEM_ISOTOPIC_ATOM_COUNT>
0

> <PUBCHEM_COMPONENT_COUNT>
1

> <PUBCHEM_CACTVS_TAUTO_COUNT>
2

> <PUBCHEM_CONFORMER_ID>
000146ED00000001

> <PUBCHEM_MMFF94_ENERGY>
32.1585

> <PUBCHEM_FEATURE_SELFOVERLAP>
35.582

> <PUBCHEM_SHAPE_FINGERPRINT>
10608611 8 18260263075081669053
12346645 6 18272366482132226396
12932764 1 18114469985106753499
13296908 3 18261115175281661859
14144814 61 17989491822613402153
14325111 11 18409447003292703579
15219456 202 18334010601116174267
18186145 218 18409737231333707195
19026448 5 17846215540645699441
19422 9 18131635577951317395
20279233 1 18040433300203463499
20559304 39 17275105007432862018
20645477 56 18113613496046127453
20645477 70 18342171137958397543
20671657 53 18267872683499146222
20871998 22 18055638317998149206
21524375 3 18052540168993016644
21730867 7 18409728473868887036
22169311 21 18334852827313363403
2255824 54 18410019827418376814
23402539 116 18041543836780368164
23557571 272 17604141618951068877
23559900 14 18408597050708162722
3248919 1 17989205928210419207
58051976 378 18198058273370041431
6049 1 17749403563215932657
7364860 26 18060423508434101676
74978 22 18408891715471423507
7615 1 17775010050723307113
8030462 33 17203895162518989723
81539 233 18337391647259895148
93112 12 18409166593457397895
9709674 26 18261394506880255667

> <PUBCHEM_SHAPE_MULTIPOLES>
280.23
7.86
1.78
1.19
3.83
0.1
0.14
-0.02
0.24
-1.74
0.16
0.21
-0.15
0.14

> <PUBCHEM_SHAPE_SELFOVERLAP>
542.135

> <PUBCHEM_SHAPE_VOLUME>
170.5

> <PUBCHEM_COORDINATE_TYPE>
2
5
10

$$$$
