78646
  -OEChem-11211805283D

 19 19  0     1  0  0  0  0  0999 V2000
    2.2836   -0.4649    0.1326 O   0  0  0  0  0  0  0  0  0  0  0  0
   -3.0351    0.8145   -0.3521 O   0  0  0  0  0  0  0  0  0  0  0  0
    1.0876    1.4601   -0.3156 O   0  0  0  0  0  0  0  0  0  0  0  0
   -1.0553    0.5256    0.8641 N   0  0  0  0  0  0  0  0  0  0  0  0
    0.0663   -0.3705    0.8623 C   0  0  1  0  0  0  0  0  0  0  0  0
   -0.4389   -1.5802    0.0990 C   0  0  0  0  0  0  0  0  0  0  0  0
   -1.5139   -1.0181   -0.8307 C   0  0  0  0  0  0  0  0  0  0  0  0
   -2.0056    0.2075   -0.1001 C   0  0  0  0  0  0  0  0  0  0  0  0
    1.1800    0.3355    0.1576 C   0  0  0  0  0  0  0  0  0  0  0  0
    3.4314    0.0905   -0.5171 C   0  0  0  0  0  0  0  0  0  0  0  0
    0.3552   -0.5898    1.8940 H   0  0  0  0  0  0  0  0  0  0  0  0
   -0.9085   -2.2828    0.7992 H   0  0  0  0  0  0  0  0  0  0  0  0
    0.3327   -2.1267   -0.4514 H   0  0  0  0  0  0  0  0  0  0  0  0
   -2.3260   -1.7314   -0.9907 H   0  0  0  0  0  0  0  0  0  0  0  0
   -1.0899   -0.7089   -1.7911 H   0  0  0  0  0  0  0  0  0  0  0  0
   -1.1328    1.3326    1.4754 H   0  0  0  0  0  0  0  0  0  0  0  0
    3.2082    0.2974   -1.5680 H   0  0  0  0  0  0  0  0  0  0  0  0
    4.2390   -0.6448   -0.4678 H   0  0  0  0  0  0  0  0  0  0  0  0
    3.7537    1.0012   -0.0033 H   0  0  0  0  0  0  0  0  0  0  0  0
  1  9  1  0  0  0  0
  1 10  1  0  0  0  0
  2  8  2  0  0  0  0
  3  9  2  0  0  0  0
  4  5  1  0  0  0  0
  4  8  1  0  0  0  0
  4 16  1  0  0  0  0
  5  6  1  0  0  0  0
  5  9  1  0  0  0  0
  5 11  1  0  0  0  0
  6  7  1  0  0  0  0
  6 12  1  0  0  0  0
  6 13  1  0  0  0  0
  7  8  1  0  0  0  0
  7 14  1  0  0  0  0
  7 15  1  0  0  0  0
 10 17  1  0  0  0  0
 10 18  1  0  0  0  0
 10 19  1  0  0  0  0
M  END
> <PUBCHEM_COMPOUND_CID>
78646

> <PUBCHEM_CONFORMER_RMSD>
0.6

> <PUBCHEM_CONFORMER_DIVERSEORDER>
1
3
2

> <PUBCHEM_MMFF94_PARTIAL_CHARGES>
10
1 -0.43
10 0.28
16 0.37
2 -0.57
3 -0.57
4 -0.73
5 0.36
7 0.06
8 0.57
9 0.66

> <PUBCHEM_EFFECTIVE_ROTOR_COUNT>
2.8

> <PUBCHEM_PHARMACOPHORE_FEATURES>
4
1 2 acceptor
1 3 acceptor
1 4 donor
5 4 5 6 7 8 rings

> <PUBCHEM_HEAVY_ATOM_COUNT>
10

> <PUBCHEM_ATOM_DEF_STEREO_COUNT>
1

> <PUBCHEM_ATOM_UDEF_STEREO_COUNT>
0

> <PUBCHEM_BOND_DEF_STEREO_COUNT>
0

> <PUBCHEM_BOND_UDEF_STEREO_COUNT>
0

> <PUBCHEM_ISOTOPIC_ATOM_COUNT>
0

> <PUBCHEM_COMPONENT_COUNT>
1

> <PUBCHEM_CACTVS_TAUTO_COUNT>
3

> <PUBCHEM_CONFORMER_ID>
0001333600000001

> <PUBCHEM_MMFF94_ENERGY>
18.305

> <PUBCHEM_FEATURE_SELFOVERLAP>
20.297

> <PUBCHEM_SHAPE_FINGERPRINT>
10857977 72 8430311320706020719
11062470 55 14692569914074034371
12716758 59 17988916803617405683
15775835 57 18187082840774177885
16945 1 17917707968057725819
20653085 51 18261679258716260525
21040471 1 18342161272528989395
21293036 1 18410856563950600724
23235685 24 18413386514568171731
23552423 10 18266453389843891754
369184 2 12967139289069251262
5084963 1 18341330080298059851
528886 8 18408316670610372427

> <PUBCHEM_SHAPE_MULTIPOLES>
183.21
4.14
1.27
0.86
2.03
0.18
-0.04
-0.69
1.07
-0.3
0.09
-0.09
0.05
-0.13

> <PUBCHEM_SHAPE_SELFOVERLAP>
370.371

> <PUBCHEM_SHAPE_VOLUME>
108.9

> <PUBCHEM_COORDINATE_TYPE>
2
5
10

$$$$
