25232840
  -OEChem-11211805383D

 36 38  0     1  0  0  0  0  0999 V2000
    0.4909   -0.6194    0.1195 O   0  0  0  0  0  0  0  0  0  0  0  0
    4.5113    2.0796   -0.0661 O   0  0  0  0  0  0  0  0  0  0  0  0
    4.7569   -2.6719    0.0236 O   0  0  0  0  0  0  0  0  0  0  0  0
   -5.7402   -0.5219   -0.5326 O   0  0  0  0  0  0  0  0  0  0  0  0
   -0.2654    0.5593    0.4425 C   0  0  1  0  0  0  0  0  0  0  0  0
    0.2105    1.7719   -0.3618 C   0  0  0  0  0  0  0  0  0  0  0  0
    1.6593    2.0717    0.0021 C   0  0  0  0  0  0  0  0  0  0  0  0
    2.4706    0.8080    0.0087 C   0  0  0  0  0  0  0  0  0  0  0  0
    1.8507   -0.4467    0.0769 C   0  0  0  0  0  0  0  0  0  0  0  0
   -1.7286    0.2696    0.1814 C   0  0  0  0  0  0  0  0  0  0  0  0
    3.8695    0.8768   -0.0259 C   0  0  0  0  0  0  0  0  0  0  0  0
    2.6190   -1.6138    0.0699 C   0  0  0  0  0  0  0  0  0  0  0  0
   -2.6404    0.2818    1.2369 C   0  0  0  0  0  0  0  0  0  0  0  0
   -2.1649   -0.0081   -1.1140 C   0  0  0  0  0  0  0  0  0  0  0  0
    4.6351   -0.2897   -0.0205 C   0  0  0  0  0  0  0  0  0  0  0  0
    4.0100   -1.5341    0.0230 C   0  0  0  0  0  0  0  0  0  0  0  0
   -3.9887    0.0165    0.9968 C   0  0  0  0  0  0  0  0  0  0  0  0
   -3.5131   -0.2735   -1.3541 C   0  0  0  0  0  0  0  0  0  0  0  0
   -4.4249   -0.2610   -0.2986 C   0  0  0  0  0  0  0  0  0  0  0  0
   -6.6175   -0.4950    0.5922 C   0  0  0  0  0  0  0  0  0  0  0  0
   -0.1271    0.7545    1.5153 H   0  0  0  0  0  0  0  0  0  0  0  0
   -0.4134    2.6524   -0.1685 H   0  0  0  0  0  0  0  0  0  0  0  0
    0.1625    1.5657   -1.4390 H   0  0  0  0  0  0  0  0  0  0  0  0
    1.7064    2.5253    0.9995 H   0  0  0  0  0  0  0  0  0  0  0  0
    2.0631    2.7920   -0.7186 H   0  0  0  0  0  0  0  0  0  0  0  0
    2.1272   -2.5831    0.1074 H   0  0  0  0  0  0  0  0  0  0  0  0
   -2.3150    0.4966    2.2514 H   0  0  0  0  0  0  0  0  0  0  0  0
   -1.4689   -0.0336   -1.9478 H   0  0  0  0  0  0  0  0  0  0  0  0
    5.7207   -0.2367   -0.0514 H   0  0  0  0  0  0  0  0  0  0  0  0
   -4.6425    0.0423    1.8618 H   0  0  0  0  0  0  0  0  0  0  0  0
   -3.8468   -0.4919   -2.3648 H   0  0  0  0  0  0  0  0  0  0  0  0
    5.4719    1.9289   -0.0857 H   0  0  0  0  0  0  0  0  0  0  0  0
    4.1616   -3.4403    0.0576 H   0  0  0  0  0  0  0  0  0  0  0  0
   -7.6227   -0.7245    0.2236 H   0  0  0  0  0  0  0  0  0  0  0  0
   -6.6625    0.5019    1.0436 H   0  0  0  0  0  0  0  0  0  0  0  0
   -6.3601   -1.2701    1.3221 H   0  0  0  0  0  0  0  0  0  0  0  0
  1  5  1  0  0  0  0
  1  9  1  0  0  0  0
  2 11  1  0  0  0  0
  2 32  1  0  0  0  0
  3 16  1  0  0  0  0
  3 33  1  0  0  0  0
  4 19  1  0  0  0  0
  4 20  1  0  0  0  0
  5  6  1  0  0  0  0
  5 10  1  0  0  0  0
  5 21  1  0  0  0  0
  6  7  1  0  0  0  0
  6 22  1  0  0  0  0
  6 23  1  0  0  0  0
  7  8  1  0  0  0  0
  7 24  1  0  0  0  0
  7 25  1  0  0  0  0
  8  9  1  0  0  0  0
  8 11  2  0  0  0  0
  9 12  2  0  0  0  0
 10 13  2  0  0  0  0
 10 14  1  0  0  0  0
 11 15  1  0  0  0  0
 12 16  1  0  0  0  0
 12 26  1  0  0  0  0
 13 17  1  0  0  0  0
 13 27  1  0  0  0  0
 14 18  2  0  0  0  0
 14 28  1  0  0  0  0
 15 16  2  0  0  0  0
 15 29  1  0  0  0  0
 17 19  2  0  0  0  0
 17 30  1  0  0  0  0
 18 19  1  0  0  0  0
 18 31  1  0  0  0  0
 20 34  1  0  0  0  0
 20 35  1  0  0  0  0
 20 36  1  0  0  0  0
M  END
> <PUBCHEM_COMPOUND_CID>
25232840

> <PUBCHEM_CONFORMER_RMSD>
0.6

> <PUBCHEM_CONFORMER_DIVERSEORDER>
1
6
3
5
4
2

> <PUBCHEM_MMFF94_PARTIAL_CHARGES>
27
1 -0.36
10 -0.14
11 0.08
12 -0.15
13 -0.15
14 -0.15
15 -0.15
16 0.08
17 -0.15
18 -0.15
19 0.08
2 -0.53
20 0.28
26 0.15
27 0.15
28 0.15
29 0.15
3 -0.53
30 0.15
31 0.15
32 0.45
33 0.45
4 -0.36
5 0.42
7 0.14
8 -0.14
9 0.08

> <PUBCHEM_EFFECTIVE_ROTOR_COUNT>
2.8

> <PUBCHEM_PHARMACOPHORE_FEATURES>
7
1 1 acceptor
1 2 donor
1 3 donor
1 4 acceptor
6 1 5 6 7 8 9 rings
6 10 13 14 17 18 19 rings
6 8 9 11 12 15 16 rings

> <PUBCHEM_HEAVY_ATOM_COUNT>
20

> <PUBCHEM_ATOM_DEF_STEREO_COUNT>
0

> <PUBCHEM_ATOM_UDEF_STEREO_COUNT>
1

> <PUBCHEM_BOND_DEF_STEREO_COUNT>
0

> <PUBCHEM_BOND_UDEF_STEREO_COUNT>
0

> <PUBCHEM_ISOTOPIC_ATOM_COUNT>
0

> <PUBCHEM_COMPONENT_COUNT>
1

> <PUBCHEM_CACTVS_TAUTO_COUNT>
9

> <PUBCHEM_CONFORMER_ID>
018105C800000001

> <PUBCHEM_MMFF94_ENERGY>
65.2777

> <PUBCHEM_FEATURE_SELFOVERLAP>
35.551

> <PUBCHEM_SHAPE_FINGERPRINT>
10411042 1 18193839246256062514
10912923 1 17846503638266775993
11471102 20 18408323311020338472
12107183 9 17696484983335655609
12236239 1 17989209265632045377
12616971 3 18131343103246864031
12788726 201 17346329193279524233
12916748 109 15574711396095592109
13073987 5 18413109450818689257
13167823 11 18202282493895994383
13533116 47 18343864424366559587
13760787 5 18271800229158966087
13862211 1 18336827477562648642
13955234 65 18340481257748854040
14341114 176 18408609171422181581
14350574 20 18261112941793413366
14386348 63 17676488362971953993
14573314 32 17748822995317096021
15196674 1 18410292471525725340
15375462 189 18131631192594614032
15961568 22 15936979655683795668
17357779 13 17968365788822701893
17834072 33 18272932743362962445
17844677 252 18335706009645051277
1813 80 18270131123179219420
18186145 218 17385726855097324696
200 152 18342736317289670721
20028762 73 18201434736383471398
20279233 1 17458346351069077161
20645477 70 18335136475569899610
21033648 29 17968361425594877725
21065198 48 18202571656911832889
21267235 1 18341055133977828086
220451 1 18202286943940932143
221357 26 18259979358438043725
22224240 67 18270672199687349320
22646028 1 18060418010522541393
23175994 123 17967536774709961741
23536379 177 18411982451837763305
23557571 272 17022615368880414172
23559900 14 16950573189653995830
239999 70 17822010926131790866
2871803 45 18041278781716636402
29717793 49 18060138708799380237
312423 11 18340780234490519952
314194 84 18343580754862338703
33824 294 18335417980864452698
345986 75 18130500813147385762
34797466 226 16588035618478878094
4073 2 18114467880715320771
42630746 31 18412544336507419720
46194498 28 17458627855899744821
465052 167 18342462538419932367
474 4 17984694778052311032
5104073 3 18340764840905868712
5281201 14 17967532354782250692
542803 24 17632298995020554209
573450 72 17346880035646238985
602551 16 15338826616483989204
7970288 3 18266175024593270018
9981440 41 17191488518061797625

> <PUBCHEM_SHAPE_MULTIPOLES>
388.11
12.92
1.85
0.95
10.75
0.07
-0.06
4.12
0.43
-3.46
-0.03
1.11
0
-0.19

> <PUBCHEM_SHAPE_SELFOVERLAP>
848.06

> <PUBCHEM_SHAPE_VOLUME>
210.9

> <PUBCHEM_COORDINATE_TYPE>
2
5
10

$$$$
