11652274
  -OEChem-11211805383D

 44 47  0     1  0  0  0  0  0999 V2000
   -2.3606    2.9690    1.1010 O   0  5  0  0  0  0  0  0  0  0  0  0
   -1.8374    1.9070    0.3464 N   0  3  2  0  0  0  0  0  0  0  0  0
    1.4014   -1.6577   -0.2046 N   0  0  0  0  0  0  0  0  0  0  0  0
   -2.1889   -0.9221   -0.5701 C   0  0  2  0  0  0  0  0  0  0  0  0
   -2.8950    1.5706   -0.6798 C   0  0  0  0  0  0  0  0  0  0  0  0
   -2.7375    0.2423   -1.4131 C   0  0  0  0  0  0  0  0  0  0  0  0
   -1.6096    0.7544    1.3038 C   0  0  0  0  0  0  0  0  0  0  0  0
   -0.5496    2.4532   -0.2615 C   0  0  0  0  0  0  0  0  0  0  0  0
   -2.1541   -0.5885    0.9046 C   0  0  0  0  0  0  0  0  0  0  0  0
    0.2139    1.6492   -1.3074 C   0  0  0  0  0  0  0  0  0  0  0  0
   -0.8385   -1.4377   -1.0837 C   0  0  0  0  0  0  0  0  0  0  0  0
    0.9171    0.4387   -0.7888 C   0  0  0  0  0  0  0  0  0  0  0  0
    0.4262   -0.8573   -0.7525 C   0  0  0  0  0  0  0  0  0  0  0  0
    2.2451    0.4018   -0.2449 C   0  0  0  0  0  0  0  0  0  0  0  0
   -2.6504   -1.4302    1.8264 C   0  0  0  0  0  0  0  0  0  0  0  0
    2.5164   -0.9188    0.1092 C   0  0  0  0  0  0  0  0  0  0  0  0
   -0.8260   -2.5111   -1.9002 C   0  0  0  0  0  0  0  0  0  0  0  0
    3.2412    1.3754   -0.0165 C   0  0  0  0  0  0  0  0  0  0  0  0
   -3.2060   -2.7740    1.5082 C   0  0  0  0  0  0  0  0  0  0  0  0
    3.7304   -1.3192    0.6788 C   0  0  0  0  0  0  0  0  0  0  0  0
    4.4615    0.9918    0.5515 C   0  0  0  0  0  0  0  0  0  0  0  0
    4.7003   -0.3368    0.8933 C   0  0  0  0  0  0  0  0  0  0  0  0
   -2.9183   -1.7263   -0.7355 H   0  0  0  0  0  0  0  0  0  0  0  0
   -2.9393    2.4131   -1.3794 H   0  0  0  0  0  0  0  0  0  0  0  0
   -3.8395    1.5590   -0.1183 H   0  0  0  0  0  0  0  0  0  0  0  0
   -3.7376   -0.0358   -1.7767 H   0  0  0  0  0  0  0  0  0  0  0  0
   -2.1628    0.3739   -2.3348 H   0  0  0  0  0  0  0  0  0  0  0  0
   -2.0699    1.0665    2.2512 H   0  0  0  0  0  0  0  0  0  0  0  0
   -0.5342    0.7004    1.4951 H   0  0  0  0  0  0  0  0  0  0  0  0
    0.0925    2.6988    0.5944 H   0  0  0  0  0  0  0  0  0  0  0  0
   -0.8531    3.4048   -0.7186 H   0  0  0  0  0  0  0  0  0  0  0  0
    0.9759    2.3158   -1.7349 H   0  0  0  0  0  0  0  0  0  0  0  0
   -0.4178    1.3940   -2.1587 H   0  0  0  0  0  0  0  0  0  0  0  0
   -2.6481   -1.1411    2.8743 H   0  0  0  0  0  0  0  0  0  0  0  0
    1.3117   -2.6506   -0.0364 H   0  0  0  0  0  0  0  0  0  0  0  0
   -1.7466   -3.0047   -2.1964 H   0  0  0  0  0  0  0  0  0  0  0  0
    0.0912   -2.9247   -2.3093 H   0  0  0  0  0  0  0  0  0  0  0  0
    3.0708    2.4169   -0.2745 H   0  0  0  0  0  0  0  0  0  0  0  0
   -3.1768   -3.3970    2.4091 H   0  0  0  0  0  0  0  0  0  0  0  0
   -2.6279   -3.3087    0.7493 H   0  0  0  0  0  0  0  0  0  0  0  0
   -4.2515   -2.6973    1.1949 H   0  0  0  0  0  0  0  0  0  0  0  0
    3.9157   -2.3541    0.9464 H   0  0  0  0  0  0  0  0  0  0  0  0
    5.2292    1.7403    0.7280 H   0  0  0  0  0  0  0  0  0  0  0  0
    5.6541   -0.6147    1.3341 H   0  0  0  0  0  0  0  0  0  0  0  0
  1  2  1  0  0  0  0
  2  5  1  0  0  0  0
  2  7  1  0  0  0  0
  2  8  1  0  0  0  0
  3 13  1  0  0  0  0
  3 16  1  0  0  0  0
  3 35  1  0  0  0  0
  4  6  1  0  0  0  0
  4  9  1  0  0  0  0
  4 11  1  0  0  0  0
  4 23  1  0  0  0  0
  5  6  1  0  0  0  0
  5 24  1  0  0  0  0
  5 25  1  0  0  0  0
  6 26  1  0  0  0  0
  6 27  1  0  0  0  0
  7  9  1  0  0  0  0
  7 28  1  0  0  0  0
  7 29  1  0  0  0  0
  8 10  1  0  0  0  0
  8 30  1  0  0  0  0
  8 31  1  0  0  0  0
  9 15  2  0  0  0  0
 10 12  1  0  0  0  0
 10 32  1  0  0  0  0
 10 33  1  0  0  0  0
 11 13  1  0  0  0  0
 11 17  2  0  0  0  0
 12 13  2  0  0  0  0
 12 14  1  0  0  0  0
 14 16  1  0  0  0  0
 14 18  2  0  0  0  0
 15 19  1  0  0  0  0
 15 34  1  0  0  0  0
 16 20  2  0  0  0  0
 17 36  1  0  0  0  0
 17 37  1  0  0  0  0
 18 21  1  0  0  0  0
 18 38  1  0  0  0  0
 19 39  1  0  0  0  0
 19 40  1  0  0  0  0
 19 41  1  0  0  0  0
 20 22  1  0  0  0  0
 20 42  1  0  0  0  0
 21 22  2  0  0  0  0
 21 43  1  0  0  0  0
 22 44  1  0  0  0  0
M  CHG  2   1  -1   2   1
M  END
> <PUBCHEM_COMPOUND_CID>
11652274

> <PUBCHEM_CONFORMER_RMSD>
0.6

> <PUBCHEM_CONFORMER_DIVERSEORDER>
1
4
5
2
3

> <PUBCHEM_MMFF94_PARTIAL_CHARGES>
28
1 -0.75
10 0.18
11 -0.09
12 -0.18
13 -0.2
15 -0.29
16 -0.15
17 -0.3
18 -0.15
19 0.14
2 -0.02
20 -0.15
21 -0.15
22 -0.15
3 0.03
34 0.15
35 0.27
36 0.15
37 0.15
38 0.15
4 0.28
42 0.15
43 0.15
44 0.15
5 0.26
7 0.39
8 0.26
9 -0.28

> <PUBCHEM_EFFECTIVE_ROTOR_COUNT>
1

> <PUBCHEM_PHARMACOPHORE_FEATURES>
7
1 1 anion
1 19 hydrophobe
1 3 cation
1 3 donor
5 3 12 13 14 16 rings
6 14 16 18 20 21 22 rings
6 2 4 5 6 7 9 rings

> <PUBCHEM_HEAVY_ATOM_COUNT>
22

> <PUBCHEM_ATOM_DEF_STEREO_COUNT>
1

> <PUBCHEM_ATOM_UDEF_STEREO_COUNT>
1

> <PUBCHEM_BOND_DEF_STEREO_COUNT>
1

> <PUBCHEM_BOND_UDEF_STEREO_COUNT>
0

> <PUBCHEM_ISOTOPIC_ATOM_COUNT>
0

> <PUBCHEM_COMPONENT_COUNT>
1

> <PUBCHEM_CACTVS_TAUTO_COUNT>
1

> <PUBCHEM_CONFORMER_ID>
00B1CCB200000001

> <PUBCHEM_MMFF94_ENERGY>
68.4636

> <PUBCHEM_FEATURE_SELFOVERLAP>
35.61

> <PUBCHEM_SHAPE_FINGERPRINT>
10863032 1 18186516609492083441
10906281 52 18339377279365873205
10948715 1 18055349137507269973
11132069 177 18201991166828601196
11578080 2 17699544129764358897
11640471 11 16699767827206425617
12077114 3 18341609287526717888
12403814 3 18272652397873266051
12633257 1 18045498612970831232
12824470 246 16805878605999822578
13140716 1 18337394838162081112
13224815 77 18187368735873674756
13583140 156 18259978284606171914
14142880 1 18341607062734249689
14178342 30 18261125036130863418
14223421 5 18410018736412216122
14787075 74 17680717226489676386
15309172 13 18200308823474551806
15375462 478 18335989773601810767
16945 1 18131635620700387702
18981168 100 17345210925234166932
20261772 1 18200038472553113682
20775530 9 15434297318661603138
21623110 236 17342083051019225600
21731228 192 18051416171313477113
22112679 90 17698452361577287943
229495 10 17538283230447863255
2306618 200 17774998007550625843
23402539 116 17845633941801926295
23419403 2 17463117286925844903
23559900 14 18187074015360111642
2748010 2 18198923434322930199
4340502 62 18118414938992535537
5104073 3 18335410267414556088
633830 44 14620522246364929898
7097593 13 17970624087465107810
7471813 234 16694687374606033407
9709674 26 18337389331808480654
9981440 41 18129368307401818123

> <PUBCHEM_SHAPE_MULTIPOLES>
436.92
6.91
2.9
1.6
7.47
0.5
-0.02
-0.9
2.75
-2.24
0.26
-1.3
-0.62
0.26

> <PUBCHEM_SHAPE_SELFOVERLAP>
953.804

> <PUBCHEM_SHAPE_VOLUME>
237.6

> <PUBCHEM_COORDINATE_TYPE>
2
5
10

$$$$
