12314286
  -OEChem-11211805303D

 53 55  0     1  0  0  0  0  0999 V2000
   -5.2887   -1.1525   -0.2572 O   0  0  0  0  0  0  0  0  0  0  0  0
   -0.6083    0.7571   -0.0093 C   0  0  1  0  0  0  0  0  0  0  0  0
   -1.5767   -0.4793   -0.2198 C   0  0  2  0  0  0  0  0  0  0  0  0
    0.7715    0.3882   -0.7062 C   0  0  2  0  0  0  0  0  0  0  0  0
   -3.1012   -0.2592    0.0963 C   0  0  1  0  0  0  0  0  0  0  0  0
   -1.2445    1.9929   -0.7002 C   0  0  0  0  0  0  0  0  0  0  0  0
   -0.9775   -1.7626    0.3971 C   0  0  0  0  0  0  0  0  0  0  0  0
   -3.5818    1.0555   -0.5646 C   0  0  0  0  0  0  0  0  0  0  0  0
    1.3220   -0.9219   -0.1600 C   0  0  0  0  0  0  0  0  0  0  0  0
   -2.6884    2.2541   -0.2795 C   0  0  0  0  0  0  0  0  0  0  0  0
    0.3798   -2.0938   -0.2263 C   0  0  0  0  0  0  0  0  0  0  0  0
    1.8420    1.5057   -0.7491 C   0  0  0  0  0  0  0  0  0  0  0  0
   -0.3563    1.0999    1.4766 C   0  0  0  0  0  0  0  0  0  0  0  0
   -3.9338   -1.4050   -0.5418 C   0  0  0  0  0  0  0  0  0  0  0  0
   -3.4564   -0.2584    1.5952 C   0  0  0  0  0  0  0  0  0  0  0  0
    2.8746    1.4335    0.3773 C   0  0  0  0  0  0  0  0  0  0  0  0
    3.5695    0.0592    0.4658 C   0  0  2  0  0  0  0  0  0  0  0  0
    2.5615   -1.0599    0.3433 C   0  0  0  0  0  0  0  0  0  0  0  0
    4.2754   -0.0487    1.8298 C   0  0  0  0  0  0  0  0  0  0  0  0
    4.6073   -0.0680   -0.6227 C   0  0  0  0  0  0  0  0  0  0  0  0
    4.6100   -1.0367   -1.5447 C   0  0  0  0  0  0  0  0  0  0  0  0
   -1.5653   -0.6552   -1.3092 H   0  0  0  0  0  0  0  0  0  0  0  0
    0.5300    0.1965   -1.7638 H   0  0  0  0  0  0  0  0  0  0  0  0
   -1.2171    1.8579   -1.7894 H   0  0  0  0  0  0  0  0  0  0  0  0
   -0.6681    2.8997   -0.4864 H   0  0  0  0  0  0  0  0  0  0  0  0
   -1.6293   -2.6246    0.2294 H   0  0  0  0  0  0  0  0  0  0  0  0
   -0.8750   -1.6606    1.4831 H   0  0  0  0  0  0  0  0  0  0  0  0
   -4.6026    1.3017   -0.2455 H   0  0  0  0  0  0  0  0  0  0  0  0
   -3.6273    0.9226   -1.6544 H   0  0  0  0  0  0  0  0  0  0  0  0
   -2.7407    2.5273    0.7794 H   0  0  0  0  0  0  0  0  0  0  0  0
   -3.0680    3.1202   -0.8353 H   0  0  0  0  0  0  0  0  0  0  0  0
    0.2408   -2.3727   -1.2786 H   0  0  0  0  0  0  0  0  0  0  0  0
    0.7957   -2.9747    0.2773 H   0  0  0  0  0  0  0  0  0  0  0  0
    1.3924    2.5017   -0.7601 H   0  0  0  0  0  0  0  0  0  0  0  0
    2.3773    1.4248   -1.7054 H   0  0  0  0  0  0  0  0  0  0  0  0
    0.2796    1.9865    1.5647 H   0  0  0  0  0  0  0  0  0  0  0  0
   -1.2603    1.3585    2.0205 H   0  0  0  0  0  0  0  0  0  0  0  0
    0.1337    0.2890    2.0223 H   0  0  0  0  0  0  0  0  0  0  0  0
   -3.6848   -2.3819   -0.1193 H   0  0  0  0  0  0  0  0  0  0  0  0
   -3.7972   -1.4486   -1.6277 H   0  0  0  0  0  0  0  0  0  0  0  0
   -3.0312    0.5843    2.1355 H   0  0  0  0  0  0  0  0  0  0  0  0
   -4.5362   -0.1798    1.7664 H   0  0  0  0  0  0  0  0  0  0  0  0
   -3.1217   -1.1775    2.0872 H   0  0  0  0  0  0  0  0  0  0  0  0
    3.6166    2.2299    0.2293 H   0  0  0  0  0  0  0  0  0  0  0  0
    2.3882    1.6634    1.3314 H   0  0  0  0  0  0  0  0  0  0  0  0
    2.8744   -2.0426    0.6948 H   0  0  0  0  0  0  0  0  0  0  0  0
    4.9949    0.7668    1.9715 H   0  0  0  0  0  0  0  0  0  0  0  0
    3.5561   -0.0016    2.6565 H   0  0  0  0  0  0  0  0  0  0  0  0
    4.8258   -0.9927    1.9282 H   0  0  0  0  0  0  0  0  0  0  0  0
    5.4017    0.6747   -0.6532 H   0  0  0  0  0  0  0  0  0  0  0  0
   -5.8083   -1.8674   -0.6625 H   0  0  0  0  0  0  0  0  0  0  0  0
    5.3990   -1.0502   -2.2913 H   0  0  0  0  0  0  0  0  0  0  0  0
    3.8781   -1.8304   -1.6175 H   0  0  0  0  0  0  0  0  0  0  0  0
  1 14  1  0  0  0  0
  1 51  1  0  0  0  0
  2  3  1  0  0  0  0
  2  4  1  0  0  0  0
  2  6  1  0  0  0  0
  2 13  1  0  0  0  0
  3  5  1  0  0  0  0
  3  7  1  0  0  0  0
  3 22  1  0  0  0  0
  4  9  1  0  0  0  0
  4 12  1  0  0  0  0
  4 23  1  0  0  0  0
  5  8  1  0  0  0  0
  5 14  1  0  0  0  0
  5 15  1  0  0  0  0
  6 10  1  0  0  0  0
  6 24  1  0  0  0  0
  6 25  1  0  0  0  0
  7 11  1  0  0  0  0
  7 26  1  0  0  0  0
  7 27  1  0  0  0  0
  8 10  1  0  0  0  0
  8 28  1  0  0  0  0
  8 29  1  0  0  0  0
  9 11  1  0  0  0  0
  9 18  2  0  0  0  0
 10 30  1  0  0  0  0
 10 31  1  0  0  0  0
 11 32  1  0  0  0  0
 11 33  1  0  0  0  0
 12 16  1  0  0  0  0
 12 34  1  0  0  0  0
 12 35  1  0  0  0  0
 13 36  1  0  0  0  0
 13 37  1  0  0  0  0
 13 38  1  0  0  0  0
 14 39  1  0  0  0  0
 14 40  1  0  0  0  0
 15 41  1  0  0  0  0
 15 42  1  0  0  0  0
 15 43  1  0  0  0  0
 16 17  1  0  0  0  0
 16 44  1  0  0  0  0
 16 45  1  0  0  0  0
 17 18  1  0  0  0  0
 17 19  1  0  0  0  0
 17 20  1  0  0  0  0
 18 46  1  0  0  0  0
 19 47  1  0  0  0  0
 19 48  1  0  0  0  0
 19 49  1  0  0  0  0
 20 21  2  0  0  0  0
 20 50  1  0  0  0  0
 21 52  1  0  0  0  0
 21 53  1  0  0  0  0
M  END
> <PUBCHEM_COMPOUND_CID>
12314286

> <PUBCHEM_CONFORMER_RMSD>
0.6

> <PUBCHEM_CONFORMER_DIVERSEORDER>
1
2
4
3

> <PUBCHEM_MMFF94_PARTIAL_CHARGES>
14
1 -0.68
11 0.14
14 0.28
17 0.28
18 -0.29
20 -0.29
21 -0.3
4 0.14
46 0.15
50 0.15
51 0.4
52 0.15
53 0.15
9 -0.28

> <PUBCHEM_EFFECTIVE_ROTOR_COUNT>
3.8

> <PUBCHEM_PHARMACOPHORE_FEATURES>
6
1 1 acceptor
1 1 donor
1 21 hydrophobe
6 2 3 4 7 9 11 rings
6 2 3 5 6 8 10 rings
6 4 9 12 16 17 18 rings

> <PUBCHEM_HEAVY_ATOM_COUNT>
21

> <PUBCHEM_ATOM_DEF_STEREO_COUNT>
5

> <PUBCHEM_ATOM_UDEF_STEREO_COUNT>
0

> <PUBCHEM_BOND_DEF_STEREO_COUNT>
0

> <PUBCHEM_BOND_UDEF_STEREO_COUNT>
0

> <PUBCHEM_ISOTOPIC_ATOM_COUNT>
0

> <PUBCHEM_COMPONENT_COUNT>
1

> <PUBCHEM_CACTVS_TAUTO_COUNT>
1

> <PUBCHEM_CONFORMER_ID>
00BBE6AE00000001

> <PUBCHEM_MMFF94_ENERGY>
72.6944

> <PUBCHEM_FEATURE_SELFOVERLAP>
30.485

> <PUBCHEM_SHAPE_FINGERPRINT>
10062212 137 18114176411075307785
10366900 7 18186525418496505162
10498660 4 18334856074261257716
10646746 165 18338514140951814244
10863032 1 18267579109240574337
10967382 1 18264488575534380109
1100329 8 14377023726709432696
11132069 177 18272364286987265098
12011746 2 18334298660589142286
12236239 1 17846222189587649263
12403259 226 18341325664882197633
12403259 415 18272649047693351424
12403260 363 18336255821108754701
12403814 3 18409729578092181073
12592029 89 18260547796810991379
12839892 36 18264750117510140370
13140716 1 18119524585919898506
13224815 77 18342174462004192640
13581323 91 18335699446823928212
13583140 156 16588026861093022827
13675066 3 18060413625461210892
13862211 1 18336256942496411887
14178342 30 18265608780182868856
14787075 74 18058436776447594672
15196674 1 18409165489518856028
15536298 74 18272369784830201598
15848702 151 17346329163025095662
16752209 62 18335421257518349990
16945 1 18334577957711484910
17349148 13 18186517726357796767
17492 89 18336259029698004947
17804303 29 18409450280289661348
18186145 218 18131352977482061826
19591789 44 18265616490045037974
200 152 18059855060548086085
20028762 73 18200027485990620911
20261772 1 18411984697240794447
20510252 161 18343300362006325432
21033648 29 17917414411675758656
21267235 1 18409175432542537919
22393880 68 18337951173565082614
23402539 116 18334002909293912551
23493267 7 17894638036558443170
23557571 272 18272097075897527597
23559900 14 18270680849387213478
2748010 2 18120939403823383750
2871803 45 18409441501561014343
296302 2 16225774007974627762
3286 77 18040702667873237976
350125 39 18409169917451316405
474 4 16444488964658032012
4990 188 18202006482634681822
5104073 3 18338231574752561904
59755656 215 18409167684579869711
633830 44 16630527306502225346
69090 78 18343298205837784102
9709674 26 18410858784601978878

> <PUBCHEM_SHAPE_MULTIPOLES>
426.3
9.14
2.07
1.28
1.12
0.25
0.4
-1.78
-0.46
-1.05
-0.31
0.79
0.04
0.41

> <PUBCHEM_SHAPE_SELFOVERLAP>
888.396

> <PUBCHEM_SHAPE_VOLUME>
239.7

> <PUBCHEM_COORDINATE_TYPE>
2
5
10

$$$$
