2733993
  -OEChem-11211805253D

 35 36  0     0  0  0  0  0  0999 V2000
    0.7811    0.0360    0.4250 O   0  0  0  0  0  0  0  0  0  0  0  0
   -5.3120   -1.2382   -0.2010 O   0  0  0  0  0  0  0  0  0  0  0  0
   -5.5118    1.0259   -0.2294 O   0  0  0  0  0  0  0  0  0  0  0  0
   -0.5756    0.0323    0.2846 C   0  0  0  0  0  0  0  0  0  0  0  0
   -1.2721    1.2384    0.2081 C   0  0  0  0  0  0  0  0  0  0  0  0
   -1.2666   -1.1775    0.2181 C   0  0  0  0  0  0  0  0  0  0  0  0
   -2.6596    1.2347    0.0648 C   0  0  0  0  0  0  0  0  0  0  0  0
   -2.6542   -1.1812    0.0748 C   0  0  0  0  0  0  0  0  0  0  0  0
   -3.3507    0.0249   -0.0019 C   0  0  0  0  0  0  0  0  0  0  0  0
    1.5549    0.0330   -0.7721 C   0  0  0  0  0  0  0  0  0  0  0  0
    3.0117    0.0059   -0.4137 C   0  0  0  0  0  0  0  0  0  0  0  0
   -0.5501    2.5438    0.2773 C   0  0  0  0  0  0  0  0  0  0  0  0
   -0.5386   -2.4789    0.2981 C   0  0  0  0  0  0  0  0  0  0  0  0
    3.7001    1.2013   -0.2396 C   0  0  0  0  0  0  0  0  0  0  0  0
    3.6602   -1.2142   -0.2592 C   0  0  0  0  0  0  0  0  0  0  0  0
   -4.7973    0.0210   -0.1515 C   0  0  0  0  0  0  0  0  0  0  0  0
    5.0544    1.1762    0.0935 C   0  0  0  0  0  0  0  0  0  0  0  0
    5.0145   -1.2393    0.0739 C   0  0  0  0  0  0  0  0  0  0  0  0
    5.7116   -0.0441    0.2503 C   0  0  0  0  0  0  0  0  0  0  0  0
   -3.1976    2.1779    0.0032 H   0  0  0  0  0  0  0  0  0  0  0  0
   -3.1664   -2.1385    0.0229 H   0  0  0  0  0  0  0  0  0  0  0  0
    1.3321    0.9240   -1.3720 H   0  0  0  0  0  0  0  0  0  0  0  0
    1.3036   -0.8391   -1.3884 H   0  0  0  0  0  0  0  0  0  0  0  0
    0.2471    2.5171    1.0277 H   0  0  0  0  0  0  0  0  0  0  0  0
   -0.1173    2.7900   -0.6972 H   0  0  0  0  0  0  0  0  0  0  0  0
   -1.2239    3.3582    0.5653 H   0  0  0  0  0  0  0  0  0  0  0  0
   -0.1060   -2.7317   -0.6748 H   0  0  0  0  0  0  0  0  0  0  0  0
    0.2597   -2.4415    1.0469 H   0  0  0  0  0  0  0  0  0  0  0  0
   -1.2074   -3.2943    0.5950 H   0  0  0  0  0  0  0  0  0  0  0  0
    3.1972    2.1573   -0.3568 H   0  0  0  0  0  0  0  0  0  0  0  0
    3.1260   -2.1511   -0.3918 H   0  0  0  0  0  0  0  0  0  0  0  0
    5.5971    2.1069    0.2316 H   0  0  0  0  0  0  0  0  0  0  0  0
    5.5261   -2.1895    0.1967 H   0  0  0  0  0  0  0  0  0  0  0  0
    6.7660   -0.0637    0.5101 H   0  0  0  0  0  0  0  0  0  0  0  0
   -6.2877   -1.2299   -0.3026 H   0  0  0  0  0  0  0  0  0  0  0  0
  1  4  1  0  0  0  0
  1 10  1  0  0  0  0
  2 16  1  0  0  0  0
  2 35  1  0  0  0  0
  3 16  2  0  0  0  0
  4  5  2  0  0  0  0
  4  6  1  0  0  0  0
  5  7  1  0  0  0  0
  5 12  1  0  0  0  0
  6  8  2  0  0  0  0
  6 13  1  0  0  0  0
  7  9  2  0  0  0  0
  7 20  1  0  0  0  0
  8  9  1  0  0  0  0
  8 21  1  0  0  0  0
  9 16  1  0  0  0  0
 10 11  1  0  0  0  0
 10 22  1  0  0  0  0
 10 23  1  0  0  0  0
 11 14  2  0  0  0  0
 11 15  1  0  0  0  0
 12 24  1  0  0  0  0
 12 25  1  0  0  0  0
 12 26  1  0  0  0  0
 13 27  1  0  0  0  0
 13 28  1  0  0  0  0
 13 29  1  0  0  0  0
 14 17  1  0  0  0  0
 14 30  1  0  0  0  0
 15 18  2  0  0  0  0
 15 31  1  0  0  0  0
 17 19  2  0  0  0  0
 17 32  1  0  0  0  0
 18 19  1  0  0  0  0
 18 33  1  0  0  0  0
 19 34  1  0  0  0  0
M  END
> <PUBCHEM_COMPOUND_CID>
2733993

> <PUBCHEM_CONFORMER_RMSD>
0.6

> <PUBCHEM_CONFORMER_DIVERSEORDER>
1
15
16
7
6
14
12
2
9
13
4
11
8
5
10
3

> <PUBCHEM_MMFF94_PARTIAL_CHARGES>
27
1 -0.36
10 0.42
11 -0.14
12 0.14
13 0.14
14 -0.15
15 -0.15
16 0.63
17 -0.15
18 -0.15
19 -0.15
2 -0.65
20 0.15
21 0.15
3 -0.57
30 0.15
31 0.15
32 0.15
33 0.15
34 0.15
35 0.5
4 0.08
5 -0.14
6 -0.14
7 -0.15
8 -0.15
9 0.09

> <PUBCHEM_EFFECTIVE_ROTOR_COUNT>
4

> <PUBCHEM_PHARMACOPHORE_FEATURES>
6
1 1 acceptor
1 2 acceptor
1 3 acceptor
3 2 3 16 anion
6 11 14 15 17 18 19 rings
6 4 5 6 7 8 9 rings

> <PUBCHEM_HEAVY_ATOM_COUNT>
19

> <PUBCHEM_ATOM_DEF_STEREO_COUNT>
0

> <PUBCHEM_ATOM_UDEF_STEREO_COUNT>
0

> <PUBCHEM_BOND_DEF_STEREO_COUNT>
0

> <PUBCHEM_BOND_UDEF_STEREO_COUNT>
0

> <PUBCHEM_ISOTOPIC_ATOM_COUNT>
0

> <PUBCHEM_COMPONENT_COUNT>
1

> <PUBCHEM_CACTVS_TAUTO_COUNT>
1

> <PUBCHEM_CONFORMER_ID>
0029B7A900000001

> <PUBCHEM_MMFF94_ENERGY>
62.9878

> <PUBCHEM_FEATURE_SELFOVERLAP>
30.504

> <PUBCHEM_SHAPE_FINGERPRINT>
10 15 18271231821336275208
10366900 7 17846505846286154432
10906281 52 18199208289365276613
10968037 39 18410858780333151524
11401426 45 18411699889738324549
12107183 9 17689153405726652472
12236239 1 17894347778579327226
12592029 89 15357972348250182064
13533116 47 18337388249988600490
13862211 1 18411417332546322031
14790565 3 18339930316392532481
15042514 8 18263650722189521907
15099037 51 18409167727281206743
15196674 1 18410576184190537479
17492 89 18198062478454695806
19489759 90 17167860855273451173
200 152 17989486320517663736
20510252 161 18270965643930740264
20645477 70 18271529702502786086
21029758 11 18343864433194280193
21236236 1 18342459188973383673
21267235 1 18410302401874962710
23402539 116 18342171172296614631
23557571 272 18130796624873122956
23559900 14 18412261770556320416
26918003 58 18187365450038985978
3004659 81 18333732408195993788
3178227 256 18337124453429382123
34934 24 18339639048842361758
351380 180 18413107256005582462
3545911 37 18410576197850957892
4214541 1 18410294675339638448
474229 33 18413670205685048087
5104073 3 18411703166814202992
5283173 99 18335413513698265917
5374978 207 18412542115919637632
542803 24 17060342920207056952
59755656 215 18338521846355596438
59755656 520 17095239237350790242
6138700 20 18409167675451799579
67856867 119 18262520433052813300
69090 78 18410293610034774734
7495541 125 17774716545590575656
9709674 26 18341341019907408150

> <PUBCHEM_SHAPE_MULTIPOLES>
373.4
12.52
2.04
0.69
3.09
0.03
-0.02
-0.22
-0.55
-0.34
0.2
0.13
0
0

> <PUBCHEM_SHAPE_SELFOVERLAP>
799.57

> <PUBCHEM_SHAPE_VOLUME>
207.5

> <PUBCHEM_COORDINATE_TYPE>
2
5
10

$$$$
