5316200
  -OEChem-11211805253D

 38 39  0     1  0  0  0  0  0999 V2000
   -3.1258   -1.7048   -1.0269 O   0  0  0  0  0  0  0  0  0  0  0  0
   -1.7947    0.3332   -0.5901 C   0  0  0  0  0  0  0  0  0  0  0  0
   -0.8227    0.7164    0.6025 C   0  0  2  0  0  0  0  0  0  0  0  0
   -1.9914   -1.1840   -0.3562 C   0  0  1  0  0  0  0  0  0  0  0  0
   -1.4377   -0.1126    1.7762 C   0  0  0  0  0  0  0  0  0  0  0  0
   -2.1200   -1.3392    1.1576 C   0  0  0  0  0  0  0  0  0  0  0  0
   -1.2389    0.5885   -2.0019 C   0  0  0  0  0  0  0  0  0  0  0  0
   -3.1553    1.0758   -0.5158 C   0  0  0  0  0  0  0  0  0  0  0  0
   -0.9035    2.2106    1.0034 C   0  0  0  0  0  0  0  0  0  0  0  0
    0.6580    0.3453    0.3193 C   0  0  0  0  0  0  0  0  0  0  0  0
    1.0990   -0.9455    0.5737 C   0  0  0  0  0  0  0  0  0  0  0  0
    1.5198    1.3099   -0.1834 C   0  0  0  0  0  0  0  0  0  0  0  0
    2.4295   -1.2788    0.3203 C   0  0  0  0  0  0  0  0  0  0  0  0
    2.8503    0.9767   -0.4370 C   0  0  0  0  0  0  0  0  0  0  0  0
    3.3053   -0.3178   -0.1852 C   0  0  0  0  0  0  0  0  0  0  0  0
    4.7280   -0.6737   -0.4565 C   0  0  0  0  0  0  0  0  0  0  0  0
   -1.1287   -1.7493   -0.7235 H   0  0  0  0  0  0  0  0  0  0  0  0
   -2.2068    0.4623    2.3080 H   0  0  0  0  0  0  0  0  0  0  0  0
   -0.7023   -0.3954    2.5379 H   0  0  0  0  0  0  0  0  0  0  0  0
   -1.6623   -2.2746    1.4969 H   0  0  0  0  0  0  0  0  0  0  0  0
   -3.1709   -1.3866    1.4677 H   0  0  0  0  0  0  0  0  0  0  0  0
   -0.9945    1.6468   -2.1428 H   0  0  0  0  0  0  0  0  0  0  0  0
   -0.3362    0.0029   -2.2034 H   0  0  0  0  0  0  0  0  0  0  0  0
   -1.9702    0.3110   -2.7699 H   0  0  0  0  0  0  0  0  0  0  0  0
   -3.6531    0.9408    0.4495 H   0  0  0  0  0  0  0  0  0  0  0  0
   -3.0296    2.1515   -0.6812 H   0  0  0  0  0  0  0  0  0  0  0  0
   -3.8468    0.7200   -1.2883 H   0  0  0  0  0  0  0  0  0  0  0  0
   -0.1669    2.4598    1.7769 H   0  0  0  0  0  0  0  0  0  0  0  0
   -0.7512    2.8779    0.1485 H   0  0  0  0  0  0  0  0  0  0  0  0
   -1.8843    2.4705    1.4183 H   0  0  0  0  0  0  0  0  0  0  0  0
   -3.2155   -2.6379   -0.7683 H   0  0  0  0  0  0  0  0  0  0  0  0
    0.4692   -1.7275    0.9757 H   0  0  0  0  0  0  0  0  0  0  0  0
    1.2071    2.3205   -0.4186 H   0  0  0  0  0  0  0  0  0  0  0  0
    2.7729   -2.2902    0.5209 H   0  0  0  0  0  0  0  0  0  0  0  0
    3.5215    1.7318   -0.8376 H   0  0  0  0  0  0  0  0  0  0  0  0
    5.0773   -1.4549    0.2271 H   0  0  0  0  0  0  0  0  0  0  0  0
    4.8356   -1.0335   -1.4846 H   0  0  0  0  0  0  0  0  0  0  0  0
    5.3852    0.1913   -0.3165 H   0  0  0  0  0  0  0  0  0  0  0  0
  1  4  1  0  0  0  0
  1 31  1  0  0  0  0
  2  3  1  0  0  0  0
  2  4  1  0  0  0  0
  2  7  1  0  0  0  0
  2  8  1  0  0  0  0
  3  5  1  0  0  0  0
  3  9  1  0  0  0  0
  3 10  1  0  0  0  0
  4  6  1  0  0  0  0
  4 17  1  0  0  0  0
  5  6  1  0  0  0  0
  5 18  1  0  0  0  0
  5 19  1  0  0  0  0
  6 20  1  0  0  0  0
  6 21  1  0  0  0  0
  7 22  1  0  0  0  0
  7 23  1  0  0  0  0
  7 24  1  0  0  0  0
  8 25  1  0  0  0  0
  8 26  1  0  0  0  0
  8 27  1  0  0  0  0
  9 28  1  0  0  0  0
  9 29  1  0  0  0  0
  9 30  1  0  0  0  0
 10 11  2  0  0  0  0
 10 12  1  0  0  0  0
 11 13  1  0  0  0  0
 11 32  1  0  0  0  0
 12 14  2  0  0  0  0
 12 33  1  0  0  0  0
 13 15  2  0  0  0  0
 13 34  1  0  0  0  0
 14 15  1  0  0  0  0
 14 35  1  0  0  0  0
 15 16  1  0  0  0  0
 16 36  1  0  0  0  0
 16 37  1  0  0  0  0
 16 38  1  0  0  0  0
M  END
> <PUBCHEM_COMPOUND_CID>
5316200

> <PUBCHEM_CONFORMER_RMSD>
0.6

> <PUBCHEM_CONFORMER_DIVERSEORDER>
1
2

> <PUBCHEM_MMFF94_PARTIAL_CHARGES>
15
1 -0.68
10 -0.14
11 -0.15
12 -0.15
13 -0.15
14 -0.15
15 -0.14
16 0.14
3 0.14
31 0.4
32 0.15
33 0.15
34 0.15
35 0.15
4 0.28

> <PUBCHEM_EFFECTIVE_ROTOR_COUNT>
2

> <PUBCHEM_PHARMACOPHORE_FEATURES>
5
1 1 acceptor
1 1 donor
3 2 7 8 hydrophobe
5 2 3 4 5 6 rings
6 10 11 12 13 14 15 rings

> <PUBCHEM_HEAVY_ATOM_COUNT>
16

> <PUBCHEM_ATOM_DEF_STEREO_COUNT>
2

> <PUBCHEM_ATOM_UDEF_STEREO_COUNT>
0

> <PUBCHEM_BOND_DEF_STEREO_COUNT>
0

> <PUBCHEM_BOND_UDEF_STEREO_COUNT>
0

> <PUBCHEM_ISOTOPIC_ATOM_COUNT>
0

> <PUBCHEM_COMPONENT_COUNT>
1

> <PUBCHEM_CACTVS_TAUTO_COUNT>
1

> <PUBCHEM_CONFORMER_ID>
00511E6800000001

> <PUBCHEM_MMFF94_ENERGY>
68.4879

> <PUBCHEM_FEATURE_SELFOVERLAP>
25.371

> <PUBCHEM_SHAPE_FINGERPRINT>
11578080 2 17202744012726846273
12138202 97 15864065502916106802
12382932 28 10303823055438730766
12423570 1 14084246015173036209
12491281 212 15357690868994366668
13024252 1 12468647131400923073
13296908 3 18131063870316876032
13299463 15 18113892775566315542
13581323 91 12901551243018945880
13764800 53 14779840307970695845
14115302 16 18410294704971919077
14289901 80 16056587739136515330
14817 1 13697869103709855473
15775835 57 17604149225053287182
15906896 17 18198917907074793905
16945 1 17749376096783828881
17844478 74 17677348219424227155
18186145 218 17894621565364273852
18534176 82 16732987552083152042
18927931 339 18270410382691484598
19422 9 17774733055407898838
200 152 18412260653432241734
20361792 2 17632285834919012549
21501502 16 18040705957274789786
22802520 49 17749106720566486665
2306618 200 17894915100920440032
23402539 116 17917707951558702285
23559900 14 18201148881034847536
25 1 17750228106415280361
2748010 2 18261955275042791136
3312278 4 18411138021868807002
465052 167 17630324379844139327

> <PUBCHEM_SHAPE_MULTIPOLES>
323.4
6.02
1.77
1.39
5.78
0.14
-0.09
-1.38
-1.52
-0.7
0.19
-1.06
0.09
-0.11

> <PUBCHEM_SHAPE_SELFOVERLAP>
679.88

> <PUBCHEM_SHAPE_VOLUME>
185.7

> <PUBCHEM_COORDINATE_TYPE>
2
5
10

$$$$
