73351971
  -OEChem-11211805373D

 51 52  0     1  0  0  0  0  0999 V2000
    4.4861    0.6899   -1.1271 O   0  0  0  0  0  0  0  0  0  0  0  0
    0.7022    0.0757   -0.5078 C   0  0  1  0  0  0  0  0  0  0  0  0
    1.6317   -0.3200    0.7083 C   0  0  2  0  0  0  0  0  0  0  0  0
    3.0096    0.4150    0.7608 C   0  0  1  0  0  0  0  0  0  0  0  0
   -0.7243   -0.5618   -0.2473 C   0  0  2  0  0  0  0  0  0  0  0  0
    0.5909    1.6231   -0.5549 C   0  0  0  0  0  0  0  0  0  0  0  0
    1.7152   -1.8536    0.8849 C   0  0  0  0  0  0  0  0  0  0  0  0
    2.8024    1.9391    0.6291 C   0  0  0  0  0  0  0  0  0  0  0  0
    1.9389    2.3379   -0.5610 C   0  0  0  0  0  0  0  0  0  0  0  0
    1.2514   -0.4205   -1.8707 C   0  0  0  0  0  0  0  0  0  0  0  0
    0.3298   -2.4806    1.0523 C   0  0  0  0  0  0  0  0  0  0  0  0
   -0.5997   -2.0734   -0.0626 C   0  0  0  0  0  0  0  0  0  0  0  0
   -1.8028   -0.1382   -1.2596 C   0  0  0  0  0  0  0  0  0  0  0  0
    3.7351    0.1556    2.0978 C   0  0  0  0  0  0  0  0  0  0  0  0
    3.9702   -0.0571   -0.3022 C   0  0  0  0  0  0  0  0  0  0  0  0
   -1.2243   -3.0071   -0.7986 C   0  0  0  0  0  0  0  0  0  0  0  0
   -3.1706   -0.2952   -0.6741 C   0  0  0  0  0  0  0  0  0  0  0  0
   -3.9022    0.6321   -0.0216 C   0  0  0  0  0  0  0  0  0  0  0  0
   -3.4248    2.0355    0.2466 C   0  0  0  0  0  0  0  0  0  0  0  0
   -5.2275    0.2601    0.4719 C   0  0  0  0  0  0  0  0  0  0  0  0
   -6.0872    1.0434    1.1359 C   0  0  0  0  0  0  0  0  0  0  0  0
    1.0996    0.0396    1.6053 H   0  0  0  0  0  0  0  0  0  0  0  0
   -1.0504   -0.1716    0.7306 H   0  0  0  0  0  0  0  0  0  0  0  0
    0.0169    1.9744    0.3123 H   0  0  0  0  0  0  0  0  0  0  0  0
    0.0512    1.9552   -1.4478 H   0  0  0  0  0  0  0  0  0  0  0  0
    2.2987   -2.1077    1.7757 H   0  0  0  0  0  0  0  0  0  0  0  0
    2.2279   -2.3172    0.0351 H   0  0  0  0  0  0  0  0  0  0  0  0
    2.3180    2.3151    1.5410 H   0  0  0  0  0  0  0  0  0  0  0  0
    3.7641    2.4643    0.5622 H   0  0  0  0  0  0  0  0  0  0  0  0
    1.7636    3.4202   -0.5212 H   0  0  0  0  0  0  0  0  0  0  0  0
    2.4631    2.1588   -1.5046 H   0  0  0  0  0  0  0  0  0  0  0  0
    0.5584   -0.1708   -2.6820 H   0  0  0  0  0  0  0  0  0  0  0  0
    1.3941   -1.5044   -1.8957 H   0  0  0  0  0  0  0  0  0  0  0  0
    2.2027    0.0366   -2.1424 H   0  0  0  0  0  0  0  0  0  0  0  0
   -0.1050   -2.1606    2.0078 H   0  0  0  0  0  0  0  0  0  0  0  0
    0.4382   -3.5703    1.1106 H   0  0  0  0  0  0  0  0  0  0  0  0
   -1.6841    0.8984   -1.5779 H   0  0  0  0  0  0  0  0  0  0  0  0
   -1.7372   -0.7028   -2.1968 H   0  0  0  0  0  0  0  0  0  0  0  0
    3.0893    0.3869    2.9520 H   0  0  0  0  0  0  0  0  0  0  0  0
    4.6346    0.7779    2.1838 H   0  0  0  0  0  0  0  0  0  0  0  0
    4.0695   -0.8828    2.1944 H   0  0  0  0  0  0  0  0  0  0  0  0
    4.2140   -1.1330   -0.3012 H   0  0  0  0  0  0  0  0  0  0  0  0
   -1.8875   -2.7801   -1.6225 H   0  0  0  0  0  0  0  0  0  0  0  0
   -1.0724   -4.0632   -0.5958 H   0  0  0  0  0  0  0  0  0  0  0  0
   -3.6052   -1.2846   -0.8134 H   0  0  0  0  0  0  0  0  0  0  0  0
   -3.4233    2.2423    1.3228 H   0  0  0  0  0  0  0  0  0  0  0  0
   -2.4084    2.2249   -0.1032 H   0  0  0  0  0  0  0  0  0  0  0  0
   -4.0752    2.7637   -0.2503 H   0  0  0  0  0  0  0  0  0  0  0  0
   -5.5484   -0.7624    0.2782 H   0  0  0  0  0  0  0  0  0  0  0  0
   -7.0474    0.6472    1.4509 H   0  0  0  0  0  0  0  0  0  0  0  0
   -5.8750    2.0772    1.3822 H   0  0  0  0  0  0  0  0  0  0  0  0
  1 15  2  0  0  0  0
  2  3  1  0  0  0  0
  2  5  1  0  0  0  0
  2  6  1  0  0  0  0
  2 10  1  0  0  0  0
  3  4  1  0  0  0  0
  3  7  1  0  0  0  0
  3 22  1  0  0  0  0
  4  8  1  0  0  0  0
  4 14  1  0  0  0  0
  4 15  1  0  0  0  0
  5 12  1  0  0  0  0
  5 13  1  0  0  0  0
  5 23  1  0  0  0  0
  6  9  1  0  0  0  0
  6 24  1  0  0  0  0
  6 25  1  0  0  0  0
  7 11  1  0  0  0  0
  7 26  1  0  0  0  0
  7 27  1  0  0  0  0
  8  9  1  0  0  0  0
  8 28  1  0  0  0  0
  8 29  1  0  0  0  0
  9 30  1  0  0  0  0
  9 31  1  0  0  0  0
 10 32  1  0  0  0  0
 10 33  1  0  0  0  0
 10 34  1  0  0  0  0
 11 12  1  0  0  0  0
 11 35  1  0  0  0  0
 11 36  1  0  0  0  0
 12 16  2  0  0  0  0
 13 17  1  0  0  0  0
 13 37  1  0  0  0  0
 13 38  1  0  0  0  0
 14 39  1  0  0  0  0
 14 40  1  0  0  0  0
 14 41  1  0  0  0  0
 15 42  1  0  0  0  0
 16 43  1  0  0  0  0
 16 44  1  0  0  0  0
 17 18  2  0  0  0  0
 17 45  1  0  0  0  0
 18 19  1  0  0  0  0
 18 20  1  0  0  0  0
 19 46  1  0  0  0  0
 19 47  1  0  0  0  0
 19 48  1  0  0  0  0
 20 21  2  0  0  0  0
 20 49  1  0  0  0  0
 21 50  1  0  0  0  0
 21 51  1  0  0  0  0
M  END
> <PUBCHEM_COMPOUND_CID>
73351971

> <PUBCHEM_CONFORMER_RMSD>
0.8

> <PUBCHEM_CONFORMER_DIVERSEORDER>
1
12
7
3
8
10
11
4
13
5
2
9
6

> <PUBCHEM_MMFF94_PARTIAL_CHARGES>
20
1 -0.57
11 0.14
12 -0.28
13 0.14
15 0.45
16 -0.3
17 -0.29
18 -0.14
19 0.14
20 -0.15
21 -0.3
4 0.06
42 0.06
43 0.15
44 0.15
45 0.15
49 0.15
5 0.14
50 0.15
51 0.15

> <PUBCHEM_EFFECTIVE_ROTOR_COUNT>
5.4

> <PUBCHEM_PHARMACOPHORE_FEATURES>
5
1 1 acceptor
1 19 hydrophobe
1 21 hydrophobe
6 2 3 4 6 8 9 rings
6 2 3 5 7 11 12 rings

> <PUBCHEM_HEAVY_ATOM_COUNT>
21

> <PUBCHEM_ATOM_DEF_STEREO_COUNT>
4

> <PUBCHEM_ATOM_UDEF_STEREO_COUNT>
0

> <PUBCHEM_BOND_DEF_STEREO_COUNT>
1

> <PUBCHEM_BOND_UDEF_STEREO_COUNT>
0

> <PUBCHEM_ISOTOPIC_ATOM_COUNT>
0

> <PUBCHEM_COMPONENT_COUNT>
1

> <PUBCHEM_CACTVS_TAUTO_COUNT>
1

> <PUBCHEM_CONFORMER_ID>
045F432300000001

> <PUBCHEM_MMFF94_ENERGY>
62.9261

> <PUBCHEM_FEATURE_SELFOVERLAP>
25.387

> <PUBCHEM_SHAPE_FINGERPRINT>
10064457 181 18187930624553416515
10366900 7 18040157322985618281
10447042 23 10231756656564943400
10493431 412 18335414711940731168
11578080 2 16915650596180486872
12592029 89 18333732394852260451
12633257 1 18263346118581261312
12788726 201 17762893672929771799
13140716 1 18190169273256395288
13583140 156 16951103145884797221
14178342 30 18194941145315995218
14341114 176 18261965046530979793
14341114 328 18412265051958833465
14790565 3 18334021583686050724
14955137 171 18040443178707352596
15295992 7 18201155571987408953
15309172 13 18261380148883258111
15342816 4 7781521429521223601
15475509 8 18269854059645793548
1601671 61 18334296439980247772
16945 1 18263622070451452214
18186145 218 18342166778408024613
19591789 44 18193272992807899086
19784866 9 18410855434891361745
20261772 1 18334010614243766745
20739085 24 18191590743948170745
21250096 35 8286200544152362905
21501502 16 17973712868787643854
21503847 285 18342741827284617384
21524375 3 18341613741639938599
221357 26 10663820738075127211
23184049 59 18261944180857201547
2334 1 17756131638037887766
23557571 272 17703230753539544255
23558518 356 17903072570781155398
23559900 14 18271242820457206876
25147074 1 17971463242301230900
2637199 183 18410862052934707186
2748010 2 17685744979630902934
2838139 119 15911894310622862304
3009799 131 12607401066351575794
3286 77 13623526848704641239
427121 178 18412265017082227811
4340502 62 15574721317438540296
458136 41 18186800245033023106
465052 167 17022626364086122081
474 4 18412829079790673441
495365 180 16988836194701559742
5104073 3 18045201977034093440
59755656 215 18130517327286322933
633830 44 18342733069840773060
7164475 11 17910667988431787567
7832392 63 18338792441889475902
81228 2 17538553714154785503
9999458 23 18187088368676753716

> <PUBCHEM_SHAPE_MULTIPOLES>
426.3
9.29
2.63
1.45
11.04
1.09
0.09
-4.97
3.07
0.02
0.05
-0.83
0.12
-0.82

> <PUBCHEM_SHAPE_SELFOVERLAP>
870.182

> <PUBCHEM_SHAPE_VOLUME>
243.2

> <PUBCHEM_COORDINATE_TYPE>
2
5
10

$$$$
