15897860
  -OEChem-11211805263D

 15 15  0     0  0  0  0  0  0999 V2000
   -1.6951   -1.7146   -0.0469 S   0  0  0  0  0  0  0  0  0  0  0  0
   -1.6944    1.7152   -0.0466 S   0  0  0  0  0  0  0  0  0  0  0  0
    1.9240   -0.0003   -0.2063 C   0  0  0  0  0  0  0  0  0  0  0  0
    1.0628   -1.2175    0.1213 C   0  0  0  0  0  0  0  0  0  0  0  0
    1.0632    1.2172    0.1209 C   0  0  0  0  0  0  0  0  0  0  0  0
   -0.3303   -0.6707    0.0288 C   0  0  0  0  0  0  0  0  0  0  0  0
   -0.3301    0.6707    0.0288 C   0  0  0  0  0  0  0  0  0  0  0  0
    2.8683   -0.0004    0.3475 H   0  0  0  0  0  0  0  0  0  0  0  0
    2.1739   -0.0005   -1.2755 H   0  0  0  0  0  0  0  0  0  0  0  0
    1.2644   -1.5834    1.1344 H   0  0  0  0  0  0  0  0  0  0  0  0
    1.2518   -2.0258   -0.5924 H   0  0  0  0  0  0  0  0  0  0  0  0
    1.2523    2.0252   -0.5932 H   0  0  0  0  0  0  0  0  0  0  0  0
    1.2649    1.5834    1.1338 H   0  0  0  0  0  0  0  0  0  0  0  0
   -1.0503   -2.8892    0.0111 H   0  0  0  0  0  0  0  0  0  0  0  0
   -1.0490    2.8895    0.0111 H   0  0  0  0  0  0  0  0  0  0  0  0
  1  6  1  0  0  0  0
  1 14  1  0  0  0  0
  2  7  1  0  0  0  0
  2 15  1  0  0  0  0
  3  4  1  0  0  0  0
  3  5  1  0  0  0  0
  3  8  1  0  0  0  0
  3  9  1  0  0  0  0
  4  6  1  0  0  0  0
  4 10  1  0  0  0  0
  4 11  1  0  0  0  0
  5  7  1  0  0  0  0
  5 12  1  0  0  0  0
  5 13  1  0  0  0  0
  6  7  2  0  0  0  0
M  END
> <PUBCHEM_COMPOUND_CID>
15897860

> <PUBCHEM_CONFORMER_RMSD>
0.4

> <PUBCHEM_CONFORMER_DIVERSEORDER>
1

> <PUBCHEM_MMFF94_PARTIAL_CHARGES>
8
1 -0.28
14 0.18
15 0.18
2 -0.28
4 0.14
5 0.14
6 -0.04
7 -0.04

> <PUBCHEM_EFFECTIVE_ROTOR_COUNT>
0.6

> <PUBCHEM_PHARMACOPHORE_FEATURES>
1
5 3 4 5 6 7 rings

> <PUBCHEM_HEAVY_ATOM_COUNT>
7

> <PUBCHEM_ATOM_DEF_STEREO_COUNT>
0

> <PUBCHEM_ATOM_UDEF_STEREO_COUNT>
0

> <PUBCHEM_BOND_DEF_STEREO_COUNT>
0

> <PUBCHEM_BOND_UDEF_STEREO_COUNT>
0

> <PUBCHEM_ISOTOPIC_ATOM_COUNT>
0

> <PUBCHEM_COMPONENT_COUNT>
1

> <PUBCHEM_CACTVS_TAUTO_COUNT>
3

> <PUBCHEM_CONFORMER_ID>
00F2950400000001

> <PUBCHEM_MMFF94_ENERGY>
8.1283

> <PUBCHEM_FEATURE_SELFOVERLAP>
5.074

> <PUBCHEM_SHAPE_FINGERPRINT>
18185500 45 17908987956218249783
20096714 4 18265897943177185568
21040471 1 18266458698386474896
23552423 10 18260835899365344454
29004967 10 17903920307051925371

> <PUBCHEM_SHAPE_MULTIPOLES>
151.76
2.4
2.11
0.65
0.05
0
0
0
-0.11
-1.13
0.01
-0.02
0
0

> <PUBCHEM_SHAPE_SELFOVERLAP>
283.469

> <PUBCHEM_SHAPE_VOLUME>
95.9

> <PUBCHEM_COORDINATE_TYPE>
2
5
10

$$$$
