101389811
  -OEChem-11211805403D

 75 80  0     1  0  0  0  0  0999 V2000
   -3.5048    0.7855    0.4319 O   0  0  0  0  0  0  0  0  0  0  0  0
    0.0703    0.5473   -1.7824 O   0  0  0  0  0  0  0  0  0  0  0  0
   -1.0329    2.7189   -0.3835 O   0  0  0  0  0  0  0  0  0  0  0  0
   -4.9857   -0.4274   -1.0018 O   0  0  0  0  0  0  0  0  0  0  0  0
    4.6755   -2.5359   -0.3436 O   0  0  0  0  0  0  0  0  0  0  0  0
    8.0288    0.8541    0.0315 O   0  0  0  0  0  0  0  0  0  0  0  0
   -0.5623   -0.9228    0.0472 C   0  0  1  0  0  0  0  0  0  0  0  0
    0.0079    0.4771   -0.3404 C   0  0  1  0  0  0  0  0  0  0  0  0
   -2.0157   -0.8226   -0.5221 C   0  0  2  0  0  0  0  0  0  0  0  0
    1.4351    0.6855    0.2060 C   0  0  1  0  0  0  0  0  0  0  0  0
   -2.3677    0.6791   -0.4235 C   0  0  2  0  0  0  0  0  0  0  0  0
   -1.1289    1.3996    0.1255 C   0  0  2  0  0  0  0  0  0  0  0  0
    2.3964   -0.4340   -0.3224 C   0  0  2  0  0  0  0  0  0  0  0  0
    0.3033   -1.9878   -0.6419 C   0  0  0  0  0  0  0  0  0  0  0  0
   -3.1736   -1.5179    0.2042 C   0  0  1  0  0  0  0  0  0  0  0  0
    1.7817   -1.8645   -0.2315 C   0  0  0  0  0  0  0  0  0  0  0  0
    3.8531   -0.3007    0.3187 C   0  0  2  0  0  0  0  0  0  0  0  0
   -4.2644   -0.4289    0.2388 C   0  0  1  0  0  0  0  0  0  0  0  0
   -0.5569   -1.1913    1.5769 C   0  0  0  0  0  0  0  0  0  0  0  0
    2.0044    2.0716   -0.1428 C   0  0  0  0  0  0  0  0  0  0  0  0
    4.3052    1.1713    0.3279 C   0  0  0  0  0  0  0  0  0  0  0  0
    4.8742   -1.1355   -0.5334 C   0  0  1  0  0  0  0  0  0  0  0  0
   -3.5749   -2.8285   -0.4616 C   0  0  0  0  0  0  0  0  0  0  0  0
   -5.2311   -0.6218    1.4124 C   0  0  0  0  0  0  0  0  0  0  0  0
    3.4697    2.2000    0.1085 C   0  0  0  0  0  0  0  0  0  0  0  0
    3.8576   -0.7879    1.7910 C   0  0  0  0  0  0  0  0  0  0  0  0
    5.7650    1.4513    0.5984 C   0  0  0  0  0  0  0  0  0  0  0  0
    6.3455   -0.8467   -0.2178 C   0  0  0  0  0  0  0  0  0  0  0  0
    6.6662    0.6368   -0.3204 C   0  0  2  0  0  0  0  0  0  0  0  0
   -6.3494    0.4177    1.3859 C   0  0  0  0  0  0  0  0  0  0  0  0
   -5.9796    0.5934   -1.0848 C   0  0  0  0  0  0  0  0  0  0  0  0
   -7.0294    0.4330    0.0147 C   0  0  2  0  0  0  0  0  0  0  0  0
   -8.0831    1.5322   -0.0655 C   0  0  0  0  0  0  0  0  0  0  0  0
   -2.0091   -1.0978   -1.5857 H   0  0  0  0  0  0  0  0  0  0  0  0
    1.3990    0.6350    1.2997 H   0  0  0  0  0  0  0  0  0  0  0  0
   -2.6521    1.0778   -1.4059 H   0  0  0  0  0  0  0  0  0  0  0  0
   -1.1642    1.4827    1.2167 H   0  0  0  0  0  0  0  0  0  0  0  0
    2.5154   -0.2420   -1.4007 H   0  0  0  0  0  0  0  0  0  0  0  0
    0.2322   -1.9079   -1.7337 H   0  0  0  0  0  0  0  0  0  0  0  0
   -0.0597   -2.9931   -0.3941 H   0  0  0  0  0  0  0  0  0  0  0  0
   -2.9056   -1.7462    1.2383 H   0  0  0  0  0  0  0  0  0  0  0  0
    1.8782   -2.2595    0.7831 H   0  0  0  0  0  0  0  0  0  0  0  0
    2.3453   -2.5450   -0.8780 H   0  0  0  0  0  0  0  0  0  0  0  0
   -0.8750   -2.2188    1.7891 H   0  0  0  0  0  0  0  0  0  0  0  0
   -1.2235   -0.5177    2.1241 H   0  0  0  0  0  0  0  0  0  0  0  0
    0.4320   -1.0875    2.0297 H   0  0  0  0  0  0  0  0  0  0  0  0
    1.4861    2.8292    0.4567 H   0  0  0  0  0  0  0  0  0  0  0  0
    1.8311    2.3237   -1.1944 H   0  0  0  0  0  0  0  0  0  0  0  0
    0.0616    1.4853   -2.0366 H   0  0  0  0  0  0  0  0  0  0  0  0
    4.7047   -0.9256   -1.5977 H   0  0  0  0  0  0  0  0  0  0  0  0
   -3.8391   -2.6893   -1.5149 H   0  0  0  0  0  0  0  0  0  0  0  0
   -4.4342   -3.2775    0.0461 H   0  0  0  0  0  0  0  0  0  0  0  0
   -2.7481   -3.5454   -0.4193 H   0  0  0  0  0  0  0  0  0  0  0  0
   -4.7003   -0.5448    2.3685 H   0  0  0  0  0  0  0  0  0  0  0  0
   -5.6879   -1.6175    1.3590 H   0  0  0  0  0  0  0  0  0  0  0  0
    3.8582    3.2158    0.1096 H   0  0  0  0  0  0  0  0  0  0  0  0
    3.6273   -1.8531    1.8806 H   0  0  0  0  0  0  0  0  0  0  0  0
    3.1323   -0.2401    2.4017 H   0  0  0  0  0  0  0  0  0  0  0  0
    4.8353   -0.6512    2.2655 H   0  0  0  0  0  0  0  0  0  0  0  0
   -1.8439    3.1897   -0.1262 H   0  0  0  0  0  0  0  0  0  0  0  0
    6.0060    2.5153    0.4761 H   0  0  0  0  0  0  0  0  0  0  0  0
    5.9983    1.2297    1.6474 H   0  0  0  0  0  0  0  0  0  0  0  0
    6.9907   -1.4147   -0.9013 H   0  0  0  0  0  0  0  0  0  0  0  0
    6.6110   -1.2293    0.7768 H   0  0  0  0  0  0  0  0  0  0  0  0
    6.5370    0.9747   -1.3561 H   0  0  0  0  0  0  0  0  0  0  0  0
   -7.0810    0.1914    2.1704 H   0  0  0  0  0  0  0  0  0  0  0  0
   -5.9347    1.4080    1.6130 H   0  0  0  0  0  0  0  0  0  0  0  0
   -5.4966    1.5771   -1.0443 H   0  0  0  0  0  0  0  0  0  0  0  0
   -6.4517    0.5070   -2.0694 H   0  0  0  0  0  0  0  0  0  0  0  0
   -7.5248   -0.5374   -0.1232 H   0  0  0  0  0  0  0  0  0  0  0  0
    5.2782   -3.0045   -0.9458 H   0  0  0  0  0  0  0  0  0  0  0  0
   -8.5876    1.5158   -1.0373 H   0  0  0  0  0  0  0  0  0  0  0  0
   -8.8443    1.3974    0.7100 H   0  0  0  0  0  0  0  0  0  0  0  0
   -7.6362    2.5233    0.0672 H   0  0  0  0  0  0  0  0  0  0  0  0
    8.5763    0.3283   -0.5762 H   0  0  0  0  0  0  0  0  0  0  0  0
  1 11  1  0  0  0  0
  1 18  1  0  0  0  0
  2  8  1  0  0  0  0
  2 49  1  0  0  0  0
  3 12  1  0  0  0  0
  3 60  1  0  0  0  0
  4 18  1  0  0  0  0
  4 31  1  0  0  0  0
  5 22  1  0  0  0  0
  5 71  1  0  0  0  0
  6 29  1  0  0  0  0
  6 75  1  0  0  0  0
  7  8  1  0  0  0  0
  7  9  1  0  0  0  0
  7 14  1  0  0  0  0
  7 19  1  0  0  0  0
  8 10  1  0  0  0  0
  8 12  1  0  0  0  0
  9 11  1  0  0  0  0
  9 15  1  0  0  0  0
  9 34  1  0  0  0  0
 10 13  1  0  0  0  0
 10 20  1  0  0  0  0
 10 35  1  0  0  0  0
 11 12  1  0  0  0  0
 11 36  1  0  0  0  0
 12 37  1  0  0  0  0
 13 16  1  0  0  0  0
 13 17  1  0  0  0  0
 13 38  1  0  0  0  0
 14 16  1  0  0  0  0
 14 39  1  0  0  0  0
 14 40  1  0  0  0  0
 15 18  1  0  0  0  0
 15 23  1  0  0  0  0
 15 41  1  0  0  0  0
 16 42  1  0  0  0  0
 16 43  1  0  0  0  0
 17 21  1  0  0  0  0
 17 22  1  0  0  0  0
 17 26  1  0  0  0  0
 18 24  1  0  0  0  0
 19 44  1  0  0  0  0
 19 45  1  0  0  0  0
 19 46  1  0  0  0  0
 20 25  1  0  0  0  0
 20 47  1  0  0  0  0
 20 48  1  0  0  0  0
 21 25  2  0  0  0  0
 21 27  1  0  0  0  0
 22 28  1  0  0  0  0
 22 50  1  0  0  0  0
 23 51  1  0  0  0  0
 23 52  1  0  0  0  0
 23 53  1  0  0  0  0
 24 30  1  0  0  0  0
 24 54  1  0  0  0  0
 24 55  1  0  0  0  0
 25 56  1  0  0  0  0
 26 57  1  0  0  0  0
 26 58  1  0  0  0  0
 26 59  1  0  0  0  0
 27 29  1  0  0  0  0
 27 61  1  0  0  0  0
 27 62  1  0  0  0  0
 28 29  1  0  0  0  0
 28 63  1  0  0  0  0
 28 64  1  0  0  0  0
 29 65  1  0  0  0  0
 30 32  1  0  0  0  0
 30 66  1  0  0  0  0
 30 67  1  0  0  0  0
 31 32  1  0  0  0  0
 31 68  1  0  0  0  0
 31 69  1  0  0  0  0
 32 33  1  0  0  0  0
 32 70  1  0  0  0  0
 33 72  1  0  0  0  0
 33 73  1  0  0  0  0
 33 74  1  0  0  0  0
M  END
> <PUBCHEM_COMPOUND_CID>
101389811

> <PUBCHEM_CONFORMER_RMSD>
0.8

> <PUBCHEM_CONFORMER_DIVERSEORDER>
1

> <PUBCHEM_MMFF94_PARTIAL_CHARGES>
23
1 -0.56
11 0.28
12 0.28
17 0.14
18 0.56
2 -0.68
20 0.14
21 -0.28
22 0.28
25 -0.29
27 0.14
29 0.28
3 -0.68
31 0.28
4 -0.56
49 0.4
5 -0.68
56 0.15
6 -0.68
60 0.4
71 0.4
75 0.4
8 0.28

> <PUBCHEM_EFFECTIVE_ROTOR_COUNT>
3

> <PUBCHEM_PHARMACOPHORE_FEATURES>
16
1 1 acceptor
1 2 acceptor
1 2 donor
1 3 acceptor
1 3 donor
1 4 acceptor
1 5 acceptor
1 5 donor
1 6 acceptor
1 6 donor
5 1 9 11 15 18 rings
5 7 8 9 11 12 rings
6 10 13 17 20 21 25 rings
6 17 21 22 27 28 29 rings
6 4 18 24 30 31 32 rings
6 7 8 10 13 14 16 rings

> <PUBCHEM_HEAVY_ATOM_COUNT>
33

> <PUBCHEM_ATOM_DEF_STEREO_COUNT>
13

> <PUBCHEM_ATOM_UDEF_STEREO_COUNT>
0

> <PUBCHEM_BOND_DEF_STEREO_COUNT>
0

> <PUBCHEM_BOND_UDEF_STEREO_COUNT>
0

> <PUBCHEM_ISOTOPIC_ATOM_COUNT>
0

> <PUBCHEM_COMPONENT_COUNT>
1

> <PUBCHEM_CACTVS_TAUTO_COUNT>
1

> <PUBCHEM_CONFORMER_ID>
060B15F300000001

> <PUBCHEM_MMFF94_ENERGY>
127.6381

> <PUBCHEM_FEATURE_SELFOVERLAP>
81.609

> <PUBCHEM_SHAPE_FINGERPRINT>
10 15 18187082862254282561
10411042 1 17836649626708983662
10906281 52 18335999634767380246
11089746 13 17132114662897254753
11315181 36 17203328940338546083
11578080 2 13972588741230161841
12011746 2 18408886244015176934
12236239 1 17489587874349921495
12788726 201 18334853879316938816
12838862 33 18339344323432879861
13402501 40 18409730673240367036
13533116 47 17917993841745774210
13811026 1 18408324397314943595
14117953 113 18412547600150062261
14294032 229 15624842464764644907
14341114 176 18411985749876637844
14840074 17 18272365369477416175
14856354 85 15985100830383028581
15131766 46 14906176535445008232
15142383 8 18040994029368934813
15183329 4 18272932717281948539
15361156 5 18187652465164741052
15461852 350 16702018704066216629
15840311 113 18408608063321009365
15849732 13 17676490553236502663
16087824 20 18411139108374999541
1813 80 17458067066362125044
18608769 82 17821732766442753410
20105231 36 18187094944150871458
21033648 29 17845640565063580722
21267235 1 18411142395084550054
21792934 111 18340758253158895504
21859007 373 17968931969361630741
221357 26 18341612590857871296
23559900 14 18339073895259708752
23569917 315 18060142059423576447
23576562 1 16055739018516686921
24771293 8 18192703661040043228
255183 451 17486224318806929366
3004659 81 18333447655563520632
3178227 256 18334585645660539338
335352 9 18411417328388206413
34934 24 18410288121446528047
350125 39 18412545409859145904
3633792 109 18060424581627371026
4017518 198 16988849384409243630
4073 2 18189056546051510722
4093350 32 17418099788817905574
4325135 7 18060700584826419540
4340502 62 16588021321207905050
5104073 3 18338794640691478459
58260988 393 15574703674097751004
59755656 215 18408603634560542798
59755656 520 17095519630180196219
6009941 240 17676210178457241721
6086070 43 16845003615326075115
6328613 192 18273216391888641305
7226269 152 18260828194362664649

> <PUBCHEM_SHAPE_MULTIPOLES>
643.91
19.04
2.34
1.13
5.3
0.29
0.26
-4.66
1.1
-0.58
-0.25
0.59
0.16
0.31

> <PUBCHEM_SHAPE_SELFOVERLAP>
1393.654

> <PUBCHEM_SHAPE_VOLUME>
348.3

> <PUBCHEM_COORDINATE_TYPE>
2
5
10

$$$$
