132538
  -OEChem-11211805383D

 95101  0     1  0  0  0  0  0999 V2000
    6.3721    0.0797   -2.2448 O   0  0  0  0  0  0  0  0  0  0  0  0
   -1.9464    3.0461    1.7165 O   0  0  0  0  0  0  0  0  0  0  0  0
   -5.0295    0.1608   -1.2494 O   0  0  0  0  0  0  0  0  0  0  0  0
   -6.4678   -1.4985   -0.4605 O   0  0  0  0  0  0  0  0  0  0  0  0
   -6.8417    2.1339   -0.3381 O   0  0  0  0  0  0  0  0  0  0  0  0
   -9.6129    1.1357   -0.2718 O   0  0  0  0  0  0  0  0  0  0  0  0
   -9.7511   -1.3732    1.1572 O   0  0  0  0  0  0  0  0  0  0  0  0
   -6.5268   -4.0487    0.5638 O   0  0  0  0  0  0  0  0  0  0  0  0
    6.4835   -1.3350    0.3217 N   0  0  1  0  0  0  0  0  0  0  0  0
    2.8484   -0.0694    0.2791 C   0  0  2  0  0  0  0  0  0  0  0  0
    0.5416    0.3155    0.0247 C   0  0  1  0  0  0  0  0  0  0  0  0
    2.5362    1.1745    1.1536 C   0  0  2  0  0  0  0  0  0  0  0  0
    1.0653    1.5268    0.8114 C   0  0  2  0  0  0  0  0  0  0  0  0
    4.2867   -0.2513   -0.2384 C   0  0  1  0  0  0  0  0  0  0  0  0
   -0.8277    0.5990   -0.6416 C   0  0  2  0  0  0  0  0  0  0  0  0
    1.7627   -0.0508   -0.8158 C   0  0  0  0  0  0  0  0  0  0  0  0
    5.0043    1.0761   -0.5493 C   0  0  1  0  0  0  0  0  0  0  0  0
    3.4320    2.3922    0.8964 C   0  0  0  0  0  0  0  0  0  0  0  0
   -1.8071    0.9313    0.5281 C   0  0  1  0  0  0  0  0  0  0  0  0
    4.8889    2.0426    0.6419 C   0  0  0  0  0  0  0  0  0  0  0  0
    0.1376    1.8698    1.9652 C   0  0  0  0  0  0  0  0  0  0  0  0
    6.4673    0.7956   -0.9994 C   0  0  1  0  0  0  0  0  0  0  0  0
    5.1077   -1.0786    0.7740 C   0  0  0  0  0  0  0  0  0  0  0  0
   -1.3510   -0.6737   -1.3561 C   0  0  0  0  0  0  0  0  0  0  0  0
    7.2281   -0.0844    0.0436 C   0  0  2  0  0  0  0  0  0  0  0  0
   -1.2691    2.0672    1.4079 C   0  0  0  0  0  0  0  0  0  0  0  0
   -3.2402    1.1437    0.0424 C   0  0  0  0  0  0  0  0  0  0  0  0
   -0.7421    1.7505   -1.6728 C   0  0  0  0  0  0  0  0  0  0  0  0
   -2.8091   -0.5521   -1.8114 C   0  0  0  0  0  0  0  0  0  0  0  0
   -3.7466   -0.1017   -0.6903 C   0  0  2  0  0  0  0  0  0  0  0  0
    8.6682   -0.4167   -0.4174 C   0  0  0  0  0  0  0  0  0  0  0  0
    7.1705   -2.1693    1.3247 C   0  0  0  0  0  0  0  0  0  0  0  0
    7.2111    2.1073   -1.3037 C   0  0  0  0  0  0  0  0  0  0  0  0
    8.5850   -2.5757    0.8924 C   0  0  2  0  0  0  0  0  0  0  0  0
    9.4000   -1.3234    0.5686 C   0  0  0  0  0  0  0  0  0  0  0  0
    8.5593   -3.5617   -0.2795 C   0  0  0  0  0  0  0  0  0  0  0  0
   -6.0733   -0.1355   -0.3221 C   0  0  2  0  0  0  0  0  0  0  0  0
   -7.2480    0.7955   -0.6224 C   0  0  1  0  0  0  0  0  0  0  0  0
   -8.4680    0.4438    0.2289 C   0  0  2  0  0  0  0  0  0  0  0  0
   -7.4961   -1.8676    0.4600 C   0  0  1  0  0  0  0  0  0  0  0  0
   -8.7630   -1.0555    0.1806 C   0  0  1  0  0  0  0  0  0  0  0  0
   -7.7390   -3.3652    0.3019 C   0  0  0  0  0  0  0  0  0  0  0  0
    2.6151   -0.9512    0.8967 H   0  0  0  0  0  0  0  0  0  0  0  0
    0.3822   -0.5138    0.7338 H   0  0  0  0  0  0  0  0  0  0  0  0
    2.6350    0.8875    2.2083 H   0  0  0  0  0  0  0  0  0  0  0  0
    1.0727    2.3968    0.1444 H   0  0  0  0  0  0  0  0  0  0  0  0
    4.2324   -0.8457   -1.1616 H   0  0  0  0  0  0  0  0  0  0  0  0
    1.9863    0.6992   -1.5816 H   0  0  0  0  0  0  0  0  0  0  0  0
    1.6563   -1.0283   -1.2956 H   0  0  0  0  0  0  0  0  0  0  0  0
    4.4753    1.5320   -1.3995 H   0  0  0  0  0  0  0  0  0  0  0  0
    3.3593    3.0800    1.7477 H   0  0  0  0  0  0  0  0  0  0  0  0
    3.0777    2.9564    0.0239 H   0  0  0  0  0  0  0  0  0  0  0  0
   -1.8412    0.0655    1.2086 H   0  0  0  0  0  0  0  0  0  0  0  0
    5.4202    2.9770    0.4324 H   0  0  0  0  0  0  0  0  0  0  0  0
    5.3356    1.6274    1.5508 H   0  0  0  0  0  0  0  0  0  0  0  0
    0.4631    2.7923    2.4570 H   0  0  0  0  0  0  0  0  0  0  0  0
    0.1045    1.0724    2.7149 H   0  0  0  0  0  0  0  0  0  0  0  0
    5.1059   -0.5930    1.7583 H   0  0  0  0  0  0  0  0  0  0  0  0
    4.6030   -2.0454    0.9032 H   0  0  0  0  0  0  0  0  0  0  0  0
   -1.2745   -1.5334   -0.6772 H   0  0  0  0  0  0  0  0  0  0  0  0
   -0.7235   -0.9095   -2.2243 H   0  0  0  0  0  0  0  0  0  0  0  0
    7.3123    0.4889    0.9780 H   0  0  0  0  0  0  0  0  0  0  0  0
   -3.8934    1.3653    0.8954 H   0  0  0  0  0  0  0  0  0  0  0  0
   -3.3190    2.0274   -0.6026 H   0  0  0  0  0  0  0  0  0  0  0  0
    0.0060    1.5346   -2.4426 H   0  0  0  0  0  0  0  0  0  0  0  0
   -1.6886    1.9160   -2.1949 H   0  0  0  0  0  0  0  0  0  0  0  0
   -0.4846    2.7088   -1.2136 H   0  0  0  0  0  0  0  0  0  0  0  0
   -2.8892    0.1351   -2.6622 H   0  0  0  0  0  0  0  0  0  0  0  0
   -3.1516   -1.5191   -2.2013 H   0  0  0  0  0  0  0  0  0  0  0  0
   -3.8104   -0.9368    0.0225 H   0  0  0  0  0  0  0  0  0  0  0  0
    9.2522    0.5048   -0.5196 H   0  0  0  0  0  0  0  0  0  0  0  0
    8.6533   -0.8885   -1.4072 H   0  0  0  0  0  0  0  0  0  0  0  0
    6.5905   -3.0834    1.5063 H   0  0  0  0  0  0  0  0  0  0  0  0
    7.2282   -1.6363    2.2838 H   0  0  0  0  0  0  0  0  0  0  0  0
    8.1095    1.9234   -1.9031 H   0  0  0  0  0  0  0  0  0  0  0  0
    6.5868    2.7780   -1.9057 H   0  0  0  0  0  0  0  0  0  0  0  0
    7.5073    2.6341   -0.3916 H   0  0  0  0  0  0  0  0  0  0  0  0
    9.0680   -3.0868    1.7353 H   0  0  0  0  0  0  0  0  0  0  0  0
   10.3834   -1.5947    0.1675 H   0  0  0  0  0  0  0  0  0  0  0  0
    9.5823   -0.7646    1.4955 H   0  0  0  0  0  0  0  0  0  0  0  0
    5.9290    0.6555   -2.8912 H   0  0  0  0  0  0  0  0  0  0  0  0
    8.0270   -4.4765    0.0025 H   0  0  0  0  0  0  0  0  0  0  0  0
    8.0635   -3.1488   -1.1632 H   0  0  0  0  0  0  0  0  0  0  0  0
    9.5775   -3.8456   -0.5663 H   0  0  0  0  0  0  0  0  0  0  0  0
   -5.7300    0.0437    0.7061 H   0  0  0  0  0  0  0  0  0  0  0  0
   -7.5115    0.7589   -1.6868 H   0  0  0  0  0  0  0  0  0  0  0  0
   -8.3251    0.7866    1.2612 H   0  0  0  0  0  0  0  0  0  0  0  0
   -7.1307   -1.6899    1.4807 H   0  0  0  0  0  0  0  0  0  0  0  0
   -9.1778   -1.3138   -0.8015 H   0  0  0  0  0  0  0  0  0  0  0  0
   -6.0577    2.3221   -0.8819 H   0  0  0  0  0  0  0  0  0  0  0  0
   -8.0500   -3.6155   -0.7178 H   0  0  0  0  0  0  0  0  0  0  0  0
   -8.4975   -3.7286    1.0012 H   0  0  0  0  0  0  0  0  0  0  0  0
  -10.3714    0.8819    0.2816 H   0  0  0  0  0  0  0  0  0  0  0  0
   -9.3897   -1.1532    2.0328 H   0  0  0  0  0  0  0  0  0  0  0  0
   -5.8595   -3.7139   -0.0595 H   0  0  0  0  0  0  0  0  0  0  0  0
  1 22  1  0  0  0  0
  1 81  1  0  0  0  0
  2 26  2  0  0  0  0
  3 30  1  0  0  0  0
  3 37  1  0  0  0  0
  4 37  1  0  0  0  0
  4 40  1  0  0  0  0
  5 38  1  0  0  0  0
  5 90  1  0  0  0  0
  6 39  1  0  0  0  0
  6 93  1  0  0  0  0
  7 41  1  0  0  0  0
  7 94  1  0  0  0  0
  8 42  1  0  0  0  0
  8 95  1  0  0  0  0
  9 23  1  0  0  0  0
  9 25  1  0  0  0  0
  9 32  1  0  0  0  0
 10 12  1  0  0  0  0
 10 14  1  0  0  0  0
 10 16  1  0  0  0  0
 10 43  1  0  0  0  0
 11 13  1  0  0  0  0
 11 15  1  0  0  0  0
 11 16  1  0  0  0  0
 11 44  1  0  0  0  0
 12 13  1  0  0  0  0
 12 18  1  0  0  0  0
 12 45  1  0  0  0  0
 13 21  1  0  0  0  0
 13 46  1  0  0  0  0
 14 17  1  0  0  0  0
 14 23  1  0  0  0  0
 14 47  1  0  0  0  0
 15 19  1  0  0  0  0
 15 24  1  0  0  0  0
 15 28  1  0  0  0  0
 16 48  1  0  0  0  0
 16 49  1  0  0  0  0
 17 20  1  0  0  0  0
 17 22  1  0  0  0  0
 17 50  1  0  0  0  0
 18 20  1  0  0  0  0
 18 51  1  0  0  0  0
 18 52  1  0  0  0  0
 19 26  1  0  0  0  0
 19 27  1  0  0  0  0
 19 53  1  0  0  0  0
 20 54  1  0  0  0  0
 20 55  1  0  0  0  0
 21 26  1  0  0  0  0
 21 56  1  0  0  0  0
 21 57  1  0  0  0  0
 22 25  1  0  0  0  0
 22 33  1  0  0  0  0
 23 58  1  0  0  0  0
 23 59  1  0  0  0  0
 24 29  1  0  0  0  0
 24 60  1  0  0  0  0
 24 61  1  0  0  0  0
 25 31  1  0  0  0  0
 25 62  1  0  0  0  0
 27 30  1  0  0  0  0
 27 63  1  0  0  0  0
 27 64  1  0  0  0  0
 28 65  1  0  0  0  0
 28 66  1  0  0  0  0
 28 67  1  0  0  0  0
 29 30  1  0  0  0  0
 29 68  1  0  0  0  0
 29 69  1  0  0  0  0
 30 70  1  0  0  0  0
 31 35  1  0  0  0  0
 31 71  1  0  0  0  0
 31 72  1  0  0  0  0
 32 34  1  0  0  0  0
 32 73  1  0  0  0  0
 32 74  1  0  0  0  0
 33 75  1  0  0  0  0
 33 76  1  0  0  0  0
 33 77  1  0  0  0  0
 34 35  1  0  0  0  0
 34 36  1  0  0  0  0
 34 78  1  0  0  0  0
 35 79  1  0  0  0  0
 35 80  1  0  0  0  0
 36 82  1  0  0  0  0
 36 83  1  0  0  0  0
 36 84  1  0  0  0  0
 37 38  1  0  0  0  0
 37 85  1  0  0  0  0
 38 39  1  0  0  0  0
 38 86  1  0  0  0  0
 39 41  1  0  0  0  0
 39 87  1  0  0  0  0
 40 41  1  0  0  0  0
 40 42  1  0  0  0  0
 40 88  1  0  0  0  0
 41 89  1  0  0  0  0
 42 91  1  0  0  0  0
 42 92  1  0  0  0  0
M  END
> <PUBCHEM_COMPOUND_CID>
132538

> <PUBCHEM_CONFORMER_RMSD>
1

> <PUBCHEM_CONFORMER_DIVERSEORDER>
1
33
25
4
15
35
30
40
42
23
29
17
21
2
14
20
27
38
12
9
31
18
43
16
7
36
19
41
3
34
13
26
32
11
37
8
6
5
22
39
10
28
24

> <PUBCHEM_MMFF94_PARTIAL_CHARGES>
28
1 -0.68
19 0.06
2 -0.57
21 0.06
22 0.28
23 0.27
25 0.27
26 0.45
3 -0.56
30 0.28
32 0.27
37 0.56
38 0.28
39 0.28
4 -0.56
40 0.28
41 0.28
42 0.28
5 -0.68
6 -0.68
7 -0.68
8 -0.68
81 0.4
9 -0.81
90 0.4
93 0.4
94 0.4
95 0.4

> <PUBCHEM_EFFECTIVE_ROTOR_COUNT>
7

> <PUBCHEM_PHARMACOPHORE_FEATURES>
21
1 1 acceptor
1 1 donor
1 2 acceptor
1 3 acceptor
1 4 acceptor
1 5 acceptor
1 5 donor
1 6 acceptor
1 6 donor
1 7 acceptor
1 7 donor
1 8 acceptor
1 8 donor
1 9 cation
5 10 11 12 13 16 rings
6 10 12 14 17 18 20 rings
6 11 13 15 19 21 26 rings
6 15 19 24 27 29 30 rings
6 4 37 38 39 40 41 rings
6 9 14 17 22 23 25 rings
6 9 25 31 32 34 35 rings

> <PUBCHEM_HEAVY_ATOM_COUNT>
42

> <PUBCHEM_ATOM_DEF_STEREO_COUNT>
17

> <PUBCHEM_ATOM_UDEF_STEREO_COUNT>
0

> <PUBCHEM_BOND_DEF_STEREO_COUNT>
0

> <PUBCHEM_BOND_UDEF_STEREO_COUNT>
0

> <PUBCHEM_ISOTOPIC_ATOM_COUNT>
0

> <PUBCHEM_COMPONENT_COUNT>
1

> <PUBCHEM_CACTVS_TAUTO_COUNT>
3

> <PUBCHEM_CONFORMER_ID>
000205BA00000001

> <PUBCHEM_MMFF94_ENERGY>
132.9979

> <PUBCHEM_FEATURE_SELFOVERLAP>
106.892

> <PUBCHEM_SHAPE_FINGERPRINT>
10076449 9 17167863036942575989
10258705 36 18334581286692000507
10299344 5 18334293162756527807
10533779 47 16343439357529486455
11135926 11 17846488215303155815
11386260 185 16443351992441194380
11456790 92 17275386516843236147
12013929 2 18410006608173652149
12082328 90 18259700086726685197
12539745 222 18338233770262207717
12758862 56 17561082544452249299
13150687 139 15791734096434114266
13811026 1 18343303660567562911
13947934 56 18339919317171165400
150020 25 17022621983092775515
15320294 125 17988352703477744438
1577012 14 14201665421951637957
1818759 1 18411981339061893030
18608769 82 18408321103755308159
19301679 30 17916025660450830398
19611394 137 18271248339522064969
19841028 212 18407757028536312370
20105231 36 18408324419876379203
2026 5 18188203183854111658
20982279 24 18336277776998039923
21267235 1 18059858372026270272
21781051 124 18343586274006064414
21792934 111 17131825460852704120
21792938 703 16805614706904993683
21792961 116 18342450410154987893
22164985 6 18333168379942258517
23569917 315 18341618050068266814
23576562 1 14201979980792559815
24771293 8 12613028354294195103
3178227 256 17846500356621786775
3383291 50 17275101734420181319
3552219 110 18411986853662959097
4149490 64 18334850650450448314
439807 62 18411418415072908680
44426699 60 18113904879886754790
45270241 37 18335425720833948692
45377200 153 17095530638550583099
4625314 4 18114180852356413325
54039377 194 18343580729092314066
5470011 282 18259986002567762892
58083652 198 17632293510527069001
6081469 158 18333730200008375780
6691757 9 14692290690689076183
9937071 3 18272931592781881654
9962374 69 17060043891420030428

> <PUBCHEM_SHAPE_MULTIPOLES>
812.4
34.38
3.25
1.48
20.61
2.24
-0.15
24.26
0.99
-0.11
1.1
-0.72
-0.52
-0.51

> <PUBCHEM_SHAPE_SELFOVERLAP>
1732.931

> <PUBCHEM_SHAPE_VOLUME>
444.4

> <PUBCHEM_COORDINATE_TYPE>
2
5
10

$$$$
