74840
  -OEChem-11211805323D

 38 38  0     1  0  0  0  0  0999 V2000
    0.7217    0.2405   -0.2340 O   0  0  0  0  0  0  0  0  0  0  0  0
   -2.4852    2.5042    0.8399 O   0  0  0  0  0  0  0  0  0  0  0  0
   -4.5728    2.0038    0.1303 O   0  0  0  0  0  0  0  0  0  0  0  0
   -0.7731    0.9530   -1.8254 O   0  0  0  0  0  0  0  0  0  0  0  0
   -1.4769    0.1289    0.2266 N   0  0  0  0  0  0  0  0  0  0  0  0
   -3.2648   -2.3120    0.4791 C   0  0  0  0  0  0  0  0  0  0  0  0
   -3.6882   -0.8485    0.7404 C   0  0  0  0  0  0  0  0  0  0  0  0
   -2.8974    0.2610    0.0311 C   0  0  1  0  0  0  0  0  0  0  0  0
   -3.3712   -2.6077   -1.0218 C   0  0  0  0  0  0  0  0  0  0  0  0
   -1.8546   -2.6423    0.9627 C   0  0  0  0  0  0  0  0  0  0  0  0
   -3.4175    1.6543    0.3470 C   0  0  0  0  0  0  0  0  0  0  0  0
   -0.5329    0.4855   -0.7171 C   0  0  0  0  0  0  0  0  0  0  0  0
    1.8040    0.5657   -1.1136 C   0  0  0  0  0  0  0  0  0  0  0  0
    3.1018    0.2383   -0.4352 C   0  0  0  0  0  0  0  0  0  0  0  0
    3.7370    1.2035    0.3383 C   0  0  0  0  0  0  0  0  0  0  0  0
    3.6572   -1.0275   -0.5857 C   0  0  0  0  0  0  0  0  0  0  0  0
    4.9432    0.8993    0.9691 C   0  0  0  0  0  0  0  0  0  0  0  0
    4.8634   -1.3317    0.0454 C   0  0  0  0  0  0  0  0  0  0  0  0
    5.5064   -0.3683    0.8227 C   0  0  0  0  0  0  0  0  0  0  0  0
   -3.9711   -2.9587    1.0149 H   0  0  0  0  0  0  0  0  0  0  0  0
   -3.6356   -0.6719    1.8239 H   0  0  0  0  0  0  0  0  0  0  0  0
   -4.7507   -0.7419    0.4823 H   0  0  0  0  0  0  0  0  0  0  0  0
   -3.0647    0.1621   -1.0497 H   0  0  0  0  0  0  0  0  0  0  0  0
   -2.6309   -2.0543   -1.6083 H   0  0  0  0  0  0  0  0  0  0  0  0
   -4.3676   -2.3569   -1.4008 H   0  0  0  0  0  0  0  0  0  0  0  0
   -3.2056   -3.6744   -1.2091 H   0  0  0  0  0  0  0  0  0  0  0  0
   -1.7424   -3.7309    1.0350 H   0  0  0  0  0  0  0  0  0  0  0  0
   -1.6681   -2.2349    1.9613 H   0  0  0  0  0  0  0  0  0  0  0  0
   -1.0711   -2.3070    0.2786 H   0  0  0  0  0  0  0  0  0  0  0  0
   -1.1382   -0.1358    1.1465 H   0  0  0  0  0  0  0  0  0  0  0  0
    1.7672    1.6326   -1.3669 H   0  0  0  0  0  0  0  0  0  0  0  0
    1.7082   -0.0062   -2.0450 H   0  0  0  0  0  0  0  0  0  0  0  0
   -2.8547    3.3975    1.0065 H   0  0  0  0  0  0  0  0  0  0  0  0
    3.3060    2.1933    0.4609 H   0  0  0  0  0  0  0  0  0  0  0  0
    3.1637   -1.7861   -1.1869 H   0  0  0  0  0  0  0  0  0  0  0  0
    5.4436    1.6491    1.5749 H   0  0  0  0  0  0  0  0  0  0  0  0
    5.3018   -2.3189   -0.0680 H   0  0  0  0  0  0  0  0  0  0  0  0
    6.4454   -0.6054    1.3142 H   0  0  0  0  0  0  0  0  0  0  0  0
  1 12  1  0  0  0  0
  1 13  1  0  0  0  0
  2 11  1  0  0  0  0
  2 33  1  0  0  0  0
  3 11  2  0  0  0  0
  4 12  2  0  0  0  0
  5  8  1  0  0  0  0
  5 12  1  0  0  0  0
  5 30  1  0  0  0  0
  6  7  1  0  0  0  0
  6  9  1  0  0  0  0
  6 10  1  0  0  0  0
  6 20  1  0  0  0  0
  7  8  1  0  0  0  0
  7 21  1  0  0  0  0
  7 22  1  0  0  0  0
  8 11  1  0  0  0  0
  8 23  1  0  0  0  0
  9 24  1  0  0  0  0
  9 25  1  0  0  0  0
  9 26  1  0  0  0  0
 10 27  1  0  0  0  0
 10 28  1  0  0  0  0
 10 29  1  0  0  0  0
 13 14  1  0  0  0  0
 13 31  1  0  0  0  0
 13 32  1  0  0  0  0
 14 15  2  0  0  0  0
 14 16  1  0  0  0  0
 15 17  1  0  0  0  0
 15 34  1  0  0  0  0
 16 18  2  0  0  0  0
 16 35  1  0  0  0  0
 17 19  2  0  0  0  0
 17 36  1  0  0  0  0
 18 19  1  0  0  0  0
 18 37  1  0  0  0  0
 19 38  1  0  0  0  0
M  END
> <PUBCHEM_COMPOUND_CID>
74840

> <PUBCHEM_CONFORMER_RMSD>
0.8

> <PUBCHEM_CONFORMER_DIVERSEORDER>
1
74
54
33
50
60
59
19
34
45
36
24
4
61
56
82
9
52
25
2
84
87
62
16
78
83
89
79
71
3
31
40
49
85
77
97
5
93
46
94
101
47
73
55
23
32
20
14
69
30
102
91
44
41
63
95
38
26
29
75
51
98
92
88
76
80
43
68
6
96
10
48
8
11
64
28
103
66
53
15
17
100
13
81
65
22
99
86
57
37
67
12
42
39
27
72
70
58
18
21
7
35
90

> <PUBCHEM_MMFF94_PARTIAL_CHARGES>
22
1 -0.43
11 0.66
12 0.78
13 0.42
14 -0.14
15 -0.15
16 -0.15
17 -0.15
18 -0.15
19 -0.15
2 -0.65
3 -0.57
30 0.37
33 0.5
34 0.15
35 0.15
36 0.15
37 0.15
38 0.15
4 -0.57
5 -0.73
8 0.36

> <PUBCHEM_EFFECTIVE_ROTOR_COUNT>
8

> <PUBCHEM_PHARMACOPHORE_FEATURES>
7
1 2 acceptor
1 3 acceptor
1 4 acceptor
1 5 donor
3 2 3 11 anion
3 6 9 10 hydrophobe
6 14 15 16 17 18 19 rings

> <PUBCHEM_HEAVY_ATOM_COUNT>
19

> <PUBCHEM_ATOM_DEF_STEREO_COUNT>
1

> <PUBCHEM_ATOM_UDEF_STEREO_COUNT>
0

> <PUBCHEM_BOND_DEF_STEREO_COUNT>
0

> <PUBCHEM_BOND_UDEF_STEREO_COUNT>
0

> <PUBCHEM_ISOTOPIC_ATOM_COUNT>
0

> <PUBCHEM_COMPONENT_COUNT>
1

> <PUBCHEM_CACTVS_TAUTO_COUNT>
2

> <PUBCHEM_CONFORMER_ID>
0001245800000001

> <PUBCHEM_MMFF94_ENERGY>
38.4837

> <PUBCHEM_FEATURE_SELFOVERLAP>
35.582

> <PUBCHEM_SHAPE_FINGERPRINT>
11045977 3 18343864407624481624
11370993 144 18341331085420640502
11370993 70 18342740676243957514
11405975 8 18411702067313279944
11552529 35 18341889731569119094
12346177 29 18334293175773350535
12523318 42 18270675480061194522
12616971 3 17094964342543077188
13167823 11 18335421292105071714
13583140 156 17703503359250078272
13675066 3 17917711284363244132
14178342 30 18335710420301936831
14289901 80 18341055228176886760
14341114 176 18341337729867254032
14420673 8 18193281789207538882
15188451 53 18335128843123059282
15537594 2 17240768324824145898
16120349 306 18040988519089568106
17780758 139 18409159992219264640
1813 80 16732991911770363518
19141452 34 18260268525152223846
20281475 54 18114186367015111668
20554085 129 18056458579468609201
21065198 57 18341613694390127352
21065199 12 18343864433436411930
21673915 165 18334855056612744090
23402539 116 18342454834081897285
23503953 91 18260832587866606892
23559900 14 18343024359318797652
23728640 28 18408893944944858067
26918003 58 18343298137782698848
351380 3 16660365857599645712
4214541 1 18410575076294833432
5104073 3 18410565198476597816
559249 180 18187925041175241315
573450 72 18334011704949117330
5924683 9 18271522100067754607
602551 16 18259984890482404410
90127 26 17561089085924973716
9709674 26 18200882785634819726

> <PUBCHEM_SHAPE_MULTIPOLES>
362.55
11.93
2.65
1.15
10.46
0.74
0.24
1.02
-2.92
-3.97
-0.38
0.01
0.03
-0.05

> <PUBCHEM_SHAPE_SELFOVERLAP>
732.027

> <PUBCHEM_SHAPE_VOLUME>
211.3

> <PUBCHEM_COORDINATE_TYPE>
2
5
10

$$$$
