3016081
  -OEChem-11211805303D

 30 30  0     0  0  0  0  0  0999 V2000
   -3.0226    0.5519    0.7209 O   0  0  0  0  0  0  0  0  0  0  0  0
    1.4690    2.5798    0.0124 O   0  0  0  0  0  0  0  0  0  0  0  0
    2.2769   -2.1247   -0.0111 O   0  0  0  0  0  0  0  0  0  0  0  0
   -2.3298   -0.4944    0.0019 C   0  0  0  0  0  0  0  0  0  0  0  0
   -0.8600   -0.2419    0.0018 C   0  0  0  0  0  0  0  0  0  0  0  0
   -2.7662   -1.8084    0.6990 C   0  0  0  0  0  0  0  0  0  0  0  0
   -2.8873   -0.4867   -1.4393 C   0  0  0  0  0  0  0  0  0  0  0  0
    0.0319   -1.3143   -0.0041 C   0  0  0  0  0  0  0  0  0  0  0  0
   -0.3770    1.0666    0.0074 C   0  0  0  0  0  0  0  0  0  0  0  0
    0.9978    1.3029    0.0073 C   0  0  0  0  0  0  0  0  0  0  0  0
    1.4067   -1.0783   -0.0043 C   0  0  0  0  0  0  0  0  0  0  0  0
    1.8897    0.2303    0.0014 C   0  0  0  0  0  0  0  0  0  0  0  0
    0.5019    3.6288    0.0176 C   0  0  0  0  0  0  0  0  0  0  0  0
    3.6689   -1.8116   -0.0109 C   0  0  0  0  0  0  0  0  0  0  0  0
   -3.8579   -1.8545    0.7944 H   0  0  0  0  0  0  0  0  0  0  0  0
   -2.4478   -2.7005    0.1505 H   0  0  0  0  0  0  0  0  0  0  0  0
   -2.3647   -1.8601    1.7180 H   0  0  0  0  0  0  0  0  0  0  0  0
   -3.9727   -0.6393   -1.4431 H   0  0  0  0  0  0  0  0  0  0  0  0
   -2.4253   -1.2669   -2.0540 H   0  0  0  0  0  0  0  0  0  0  0  0
   -2.7085    0.4808   -1.9234 H   0  0  0  0  0  0  0  0  0  0  0  0
   -0.3094   -2.3444   -0.0247 H   0  0  0  0  0  0  0  0  0  0  0  0
   -1.1037    1.8712   -0.0041 H   0  0  0  0  0  0  0  0  0  0  0  0
    2.9459    0.4787    0.0014 H   0  0  0  0  0  0  0  0  0  0  0  0
   -3.9792    0.4041    0.6264 H   0  0  0  0  0  0  0  0  0  0  0  0
   -0.1095    3.6093    0.9262 H   0  0  0  0  0  0  0  0  0  0  0  0
   -0.1054    3.6213   -0.8940 H   0  0  0  0  0  0  0  0  0  0  0  0
    1.0528    4.5751    0.0250 H   0  0  0  0  0  0  0  0  0  0  0  0
    4.2136   -2.7615   -0.0163 H   0  0  0  0  0  0  0  0  0  0  0  0
    3.9621   -1.2807    0.9012 H   0  0  0  0  0  0  0  0  0  0  0  0
    3.9602   -1.2714   -0.9181 H   0  0  0  0  0  0  0  0  0  0  0  0
  1  4  1  0  0  0  0
  1 24  1  0  0  0  0
  2 10  1  0  0  0  0
  2 13  1  0  0  0  0
  3 11  1  0  0  0  0
  3 14  1  0  0  0  0
  4  5  1  0  0  0  0
  4  6  1  0  0  0  0
  4  7  1  0  0  0  0
  5  8  2  0  0  0  0
  5  9  1  0  0  0  0
  6 15  1  0  0  0  0
  6 16  1  0  0  0  0
  6 17  1  0  0  0  0
  7 18  1  0  0  0  0
  7 19  1  0  0  0  0
  7 20  1  0  0  0  0
  8 11  1  0  0  0  0
  8 21  1  0  0  0  0
  9 10  2  0  0  0  0
  9 22  1  0  0  0  0
 10 12  1  0  0  0  0
 11 12  2  0  0  0  0
 12 23  1  0  0  0  0
 13 25  1  0  0  0  0
 13 26  1  0  0  0  0
 13 27  1  0  0  0  0
 14 28  1  0  0  0  0
 14 29  1  0  0  0  0
 14 30  1  0  0  0  0
M  END
> <PUBCHEM_COMPOUND_CID>
3016081

> <PUBCHEM_CONFORMER_RMSD>
0.6

> <PUBCHEM_CONFORMER_DIVERSEORDER>
3
9
2
6
10
4
5
8
11
7
12
1

> <PUBCHEM_MMFF94_PARTIAL_CHARGES>
16
1 -0.68
10 0.08
11 0.08
12 -0.15
13 0.28
14 0.28
2 -0.36
21 0.15
22 0.15
23 0.15
24 0.4
3 -0.36
4 0.42
5 -0.14
8 -0.15
9 -0.15

> <PUBCHEM_EFFECTIVE_ROTOR_COUNT>
3

> <PUBCHEM_PHARMACOPHORE_FEATURES>
6
1 1 acceptor
1 1 donor
1 2 acceptor
1 3 acceptor
3 4 6 7 hydrophobe
6 5 8 9 10 11 12 rings

> <PUBCHEM_HEAVY_ATOM_COUNT>
14

> <PUBCHEM_ATOM_DEF_STEREO_COUNT>
0

> <PUBCHEM_ATOM_UDEF_STEREO_COUNT>
0

> <PUBCHEM_BOND_DEF_STEREO_COUNT>
0

> <PUBCHEM_BOND_UDEF_STEREO_COUNT>
0

> <PUBCHEM_ISOTOPIC_ATOM_COUNT>
0

> <PUBCHEM_COMPONENT_COUNT>
1

> <PUBCHEM_CACTVS_TAUTO_COUNT>
1

> <PUBCHEM_CONFORMER_ID>
002E059100000003

> <PUBCHEM_MMFF94_ENERGY>
58.7643

> <PUBCHEM_FEATURE_SELFOVERLAP>
30.446

> <PUBCHEM_SHAPE_FINGERPRINT>
1 1 18050005798579492700
12138202 78 18336534010398547941
12553582 1 18265615390243253274
14648413 74 18336263552276513609
14817 1 15578880799764120885
15490181 7 17834682977645628110
16945 1 18267583691975921399
17841504 4 18337117851241753947
17990270 104 18337107968342644779
18380122 1 17608932324289040307
193761 8 17906453582185413794
20645477 70 18264757947720908415
20711985 344 17977089168111501890
20871998 184 17839742560820939006
21041028 32 18338812117071654433
21061003 4 18334586719687582955
21130352 189 18410285874497786487
21524375 3 17468752343852560616
22112679 90 18127713559682039440
2334 1 18411418393128677668
23419403 2 14501081116432832363
23552423 10 18269275840650663039
23557571 272 17912370832091826950
241688 4 18267021657056373288
2748010 2 18340194198918934780
3071541 12 18339366386885653196
3071541 158 18260265252666836308
3071541 236 17469309345434136344
31174 14 18190755308886009355
458136 41 17758702304592172425
5493415 88 18335138704389154426
5902787 121 18260828193988605738
6992083 37 18058177137295522435
7364860 26 18267588081601309496
74978 22 18410574007074966399
81228 2 17979355257397451384

> <PUBCHEM_SHAPE_MULTIPOLES>
270.51
4.73
3.2
0.82
0.77
3.03
0.16
-3.1
0.11
-2.31
-0.2
0.65
-0.11
0.13

> <PUBCHEM_SHAPE_SELFOVERLAP>
554.595

> <PUBCHEM_SHAPE_VOLUME>
158.3

> <PUBCHEM_COORDINATE_TYPE>
2
5
10

$$$$
