11227138
  -OEChem-11211805313D

103107  0     1  0  0  0  0  0999 V2000
   -4.2757   -0.2992    0.4127 O   0  0  0  0  0  0  0  0  0  0  0  0
   -4.6236    1.9081    0.9994 O   0  0  0  0  0  0  0  0  0  0  0  0
  -11.1996   -1.5782   -0.0015 O   0  0  0  0  0  0  0  0  0  0  0  0
  -12.8748    0.5937   -0.4466 O   0  0  0  0  0  0  0  0  0  0  0  0
    4.3839   -1.2871   -0.3384 C   0  0  1  0  0  0  0  0  0  0  0  0
    3.6547    0.0164   -0.7302 C   0  0  2  0  0  0  0  0  0  0  0  0
    2.1783   -0.2063   -1.0766 C   0  0  1  0  0  0  0  0  0  0  0  0
    1.4614   -0.8160    0.1719 C   0  0  1  0  0  0  0  0  0  0  0  0
   -0.0777   -1.0287   -0.0803 C   0  0  2  0  0  0  0  0  0  0  0  0
    5.8068   -0.7173   -0.1195 C   0  0  2  0  0  0  0  0  0  0  0  0
    3.7106   -1.8407    0.9255 C   0  0  0  0  0  0  0  0  0  0  0  0
   -0.6768    0.3527   -0.5000 C   0  0  1  0  0  0  0  0  0  0  0  0
    2.2021   -2.0667    0.7146 C   0  0  0  0  0  0  0  0  0  0  0  0
    4.5753    0.6433   -1.7728 C   0  0  0  0  0  0  0  0  0  0  0  0
    1.5033    1.0977   -1.5255 C   0  0  0  0  0  0  0  0  0  0  0  0
    5.9911    0.2691   -1.2965 C   0  0  0  0  0  0  0  0  0  0  0  0
    0.0016    0.9308   -1.7467 C   0  0  0  0  0  0  0  0  0  0  0  0
   -0.7913   -1.4744    1.2281 C   0  0  0  0  0  0  0  0  0  0  0  0
    4.3822   -2.3710   -1.4457 C   0  0  0  0  0  0  0  0  0  0  0  0
    6.9379   -1.7300   -0.0129 C   0  0  1  0  0  0  0  0  0  0  0  0
   -2.2021    0.3188   -0.6575 C   0  0  0  0  0  0  0  0  0  0  0  0
   -0.3135   -2.1161   -1.1597 C   0  0  0  0  0  0  0  0  0  0  0  0
   -2.3176   -1.4857    1.1183 C   0  0  0  0  0  0  0  0  0  0  0  0
   -2.8762   -0.1532    0.6302 C   0  0  2  0  0  0  0  0  0  0  0  0
    8.3245   -1.1028   -0.2668 C   0  0  0  0  0  0  0  0  0  0  0  0
    6.9268   -2.3869    1.3733 C   0  0  0  0  0  0  0  0  0  0  0  0
    8.6941    0.0892    0.6313 C   0  0  0  0  0  0  0  0  0  0  0  0
   10.0443    0.7880    0.3248 C   0  0  2  0  0  0  0  0  0  0  0  0
   -5.0291    0.8154    0.6363 C   0  0  0  0  0  0  0  0  0  0  0  0
   10.3824    1.9088    1.3590 C   0  0  0  0  0  0  0  0  0  0  0  0
   10.0775    1.2856   -1.1415 C   0  0  0  0  0  0  0  0  0  0  0  0
    9.4515    3.1223    1.2882 C   0  0  0  0  0  0  0  0  0  0  0  0
   10.4258    1.3773    2.7974 C   0  0  0  0  0  0  0  0  0  0  0  0
   -6.4428    0.4714    0.3621 C   0  0  0  0  0  0  0  0  0  0  0  0
   11.3684    1.9884   -1.5403 C   0  0  0  0  0  0  0  0  0  0  0  0
   -7.3914    1.4069    0.5119 C   0  0  0  0  0  0  0  0  0  0  0  0
   -8.8271    1.1904    0.2604 C   0  0  0  0  0  0  0  0  0  0  0  0
   -9.3455   -0.1045    0.2476 C   0  0  0  0  0  0  0  0  0  0  0  0
   -9.6679    2.2806    0.0356 C   0  0  0  0  0  0  0  0  0  0  0  0
  -10.7047   -0.3093    0.0101 C   0  0  0  0  0  0  0  0  0  0  0  0
  -11.0270    2.0756   -0.2021 C   0  0  0  0  0  0  0  0  0  0  0  0
  -11.5455    0.7807   -0.2148 C   0  0  0  0  0  0  0  0  0  0  0  0
  -10.2743   -2.6372    0.2371 C   0  0  0  0  0  0  0  0  0  0  0  0
    3.6725    0.6981    0.1370 H   0  0  0  0  0  0  0  0  0  0  0  0
    2.1136   -0.9041   -1.9171 H   0  0  0  0  0  0  0  0  0  0  0  0
    1.5416   -0.0632    0.9726 H   0  0  0  0  0  0  0  0  0  0  0  0
    5.7913   -0.1079    0.7968 H   0  0  0  0  0  0  0  0  0  0  0  0
    4.1447   -2.7968    1.2270 H   0  0  0  0  0  0  0  0  0  0  0  0
    3.8499   -1.1488    1.7658 H   0  0  0  0  0  0  0  0  0  0  0  0
   -0.4722    1.0602    0.3190 H   0  0  0  0  0  0  0  0  0  0  0  0
    1.7741   -2.3644    1.6783 H   0  0  0  0  0  0  0  0  0  0  0  0
    2.0611   -2.9160    0.0390 H   0  0  0  0  0  0  0  0  0  0  0  0
    4.4490    1.7293   -1.8291 H   0  0  0  0  0  0  0  0  0  0  0  0
    4.3862    0.2350   -2.7720 H   0  0  0  0  0  0  0  0  0  0  0  0
    1.9590    1.4570   -2.4557 H   0  0  0  0  0  0  0  0  0  0  0  0
    1.6688    1.8788   -0.7724 H   0  0  0  0  0  0  0  0  0  0  0  0
    6.5309    1.1719   -0.9974 H   0  0  0  0  0  0  0  0  0  0  0  0
    6.5240   -0.1759   -2.1435 H   0  0  0  0  0  0  0  0  0  0  0  0
   -0.1807    0.2948   -2.6204 H   0  0  0  0  0  0  0  0  0  0  0  0
   -0.4288    1.9117   -1.9831 H   0  0  0  0  0  0  0  0  0  0  0  0
   -0.4644   -2.4781    1.5237 H   0  0  0  0  0  0  0  0  0  0  0  0
   -0.5069   -0.8003    2.0468 H   0  0  0  0  0  0  0  0  0  0  0  0
    4.9457   -2.0665   -2.3332 H   0  0  0  0  0  0  0  0  0  0  0  0
    4.8225   -3.3055   -1.0801 H   0  0  0  0  0  0  0  0  0  0  0  0
    3.3745   -2.6252   -1.7847 H   0  0  0  0  0  0  0  0  0  0  0  0
    6.8385   -2.5225   -0.7617 H   0  0  0  0  0  0  0  0  0  0  0  0
   -2.5041   -0.3144   -1.5002 H   0  0  0  0  0  0  0  0  0  0  0  0
   -2.5722    1.3210   -0.9094 H   0  0  0  0  0  0  0  0  0  0  0  0
   -1.3705   -2.2236   -1.4190 H   0  0  0  0  0  0  0  0  0  0  0  0
    0.0193   -3.0994   -0.8111 H   0  0  0  0  0  0  0  0  0  0  0  0
    0.2143   -1.9068   -2.0931 H   0  0  0  0  0  0  0  0  0  0  0  0
   -2.7536   -1.7253    2.0965 H   0  0  0  0  0  0  0  0  0  0  0  0
   -2.6483   -2.2953    0.4562 H   0  0  0  0  0  0  0  0  0  0  0  0
   -2.6875    0.5827    1.4242 H   0  0  0  0  0  0  0  0  0  0  0  0
    8.3870   -0.8205   -1.3205 H   0  0  0  0  0  0  0  0  0  0  0  0
    9.0935   -1.8768   -0.1396 H   0  0  0  0  0  0  0  0  0  0  0  0
    7.8729   -2.9049    1.5681 H   0  0  0  0  0  0  0  0  0  0  0  0
    6.1513   -3.1513    1.4436 H   0  0  0  0  0  0  0  0  0  0  0  0
    6.7748   -1.6612    2.1789 H   0  0  0  0  0  0  0  0  0  0  0  0
    7.9049    0.8430    0.6091 H   0  0  0  0  0  0  0  0  0  0  0  0
    8.7212   -0.2861    1.6598 H   0  0  0  0  0  0  0  0  0  0  0  0
   10.8279    0.0226    0.4194 H   0  0  0  0  0  0  0  0  0  0  0  0
   11.3978    2.2634    1.1409 H   0  0  0  0  0  0  0  0  0  0  0  0
    9.9749    0.4303   -1.8176 H   0  0  0  0  0  0  0  0  0  0  0  0
    9.2256    1.9452   -1.3433 H   0  0  0  0  0  0  0  0  0  0  0  0
    9.7734    3.8907    2.0002 H   0  0  0  0  0  0  0  0  0  0  0  0
    9.4567    3.5820    0.2961 H   0  0  0  0  0  0  0  0  0  0  0  0
    8.4193    2.8579    1.5373 H   0  0  0  0  0  0  0  0  0  0  0  0
    9.4269    1.1518    3.1837 H   0  0  0  0  0  0  0  0  0  0  0  0
   10.8689    2.1252    3.4647 H   0  0  0  0  0  0  0  0  0  0  0  0
   11.0380    0.4721    2.8630 H   0  0  0  0  0  0  0  0  0  0  0  0
   -6.6434   -0.5375    0.0213 H   0  0  0  0  0  0  0  0  0  0  0  0
   11.4777    2.9540   -1.0389 H   0  0  0  0  0  0  0  0  0  0  0  0
   12.2407    1.3709   -1.3042 H   0  0  0  0  0  0  0  0  0  0  0  0
   11.3719    2.1797   -2.6185 H   0  0  0  0  0  0  0  0  0  0  0  0
   -7.1233    2.4119    0.8296 H   0  0  0  0  0  0  0  0  0  0  0  0
   -8.6771   -0.9305    0.4531 H   0  0  0  0  0  0  0  0  0  0  0  0
   -9.2809    3.2967    0.0408 H   0  0  0  0  0  0  0  0  0  0  0  0
  -11.6708    2.9337   -0.3759 H   0  0  0  0  0  0  0  0  0  0  0  0
  -13.2979    1.4593   -0.5799 H   0  0  0  0  0  0  0  0  0  0  0  0
  -10.8388   -3.5742    0.1844 H   0  0  0  0  0  0  0  0  0  0  0  0
   -9.8480   -2.5824    1.2447 H   0  0  0  0  0  0  0  0  0  0  0  0
   -9.5061   -2.6877   -0.5422 H   0  0  0  0  0  0  0  0  0  0  0  0
  1 24  1  0  0  0  0
  1 29  1  0  0  0  0
  2 29  2  0  0  0  0
  3 40  1  0  0  0  0
  3 43  1  0  0  0  0
  4 42  1  0  0  0  0
  4100  1  0  0  0  0
  5  6  1  0  0  0  0
  5 10  1  0  0  0  0
  5 11  1  0  0  0  0
  5 19  1  0  0  0  0
  6  7  1  0  0  0  0
  6 14  1  0  0  0  0
  6 44  1  0  0  0  0
  7  8  1  0  0  0  0
  7 15  1  0  0  0  0
  7 45  1  0  0  0  0
  8  9  1  0  0  0  0
  8 13  1  0  0  0  0
  8 46  1  0  0  0  0
  9 12  1  0  0  0  0
  9 18  1  0  0  0  0
  9 22  1  0  0  0  0
 10 16  1  0  0  0  0
 10 20  1  0  0  0  0
 10 47  1  0  0  0  0
 11 13  1  0  0  0  0
 11 48  1  0  0  0  0
 11 49  1  0  0  0  0
 12 17  1  0  0  0  0
 12 21  1  0  0  0  0
 12 50  1  0  0  0  0
 13 51  1  0  0  0  0
 13 52  1  0  0  0  0
 14 16  1  0  0  0  0
 14 53  1  0  0  0  0
 14 54  1  0  0  0  0
 15 17  1  0  0  0  0
 15 55  1  0  0  0  0
 15 56  1  0  0  0  0
 16 57  1  0  0  0  0
 16 58  1  0  0  0  0
 17 59  1  0  0  0  0
 17 60  1  0  0  0  0
 18 23  1  0  0  0  0
 18 61  1  0  0  0  0
 18 62  1  0  0  0  0
 19 63  1  0  0  0  0
 19 64  1  0  0  0  0
 19 65  1  0  0  0  0
 20 25  1  0  0  0  0
 20 26  1  0  0  0  0
 20 66  1  0  0  0  0
 21 24  1  0  0  0  0
 21 67  1  0  0  0  0
 21 68  1  0  0  0  0
 22 69  1  0  0  0  0
 22 70  1  0  0  0  0
 22 71  1  0  0  0  0
 23 24  1  0  0  0  0
 23 72  1  0  0  0  0
 23 73  1  0  0  0  0
 24 74  1  0  0  0  0
 25 27  1  0  0  0  0
 25 75  1  0  0  0  0
 25 76  1  0  0  0  0
 26 77  1  0  0  0  0
 26 78  1  0  0  0  0
 26 79  1  0  0  0  0
 27 28  1  0  0  0  0
 27 80  1  0  0  0  0
 27 81  1  0  0  0  0
 28 30  1  0  0  0  0
 28 31  1  0  0  0  0
 28 82  1  0  0  0  0
 29 34  1  0  0  0  0
 30 32  1  0  0  0  0
 30 33  1  0  0  0  0
 30 83  1  0  0  0  0
 31 35  1  0  0  0  0
 31 84  1  0  0  0  0
 31 85  1  0  0  0  0
 32 86  1  0  0  0  0
 32 87  1  0  0  0  0
 32 88  1  0  0  0  0
 33 89  1  0  0  0  0
 33 90  1  0  0  0  0
 33 91  1  0  0  0  0
 34 36  2  0  0  0  0
 34 92  1  0  0  0  0
 35 93  1  0  0  0  0
 35 94  1  0  0  0  0
 35 95  1  0  0  0  0
 36 37  1  0  0  0  0
 36 96  1  0  0  0  0
 37 38  2  0  0  0  0
 37 39  1  0  0  0  0
 38 40  1  0  0  0  0
 38 97  1  0  0  0  0
 39 41  2  0  0  0  0
 39 98  1  0  0  0  0
 40 42  2  0  0  0  0
 41 42  1  0  0  0  0
 41 99  1  0  0  0  0
 43101  1  0  0  0  0
 43102  1  0  0  0  0
 43103  1  0  0  0  0
M  END
> <PUBCHEM_COMPOUND_CID>
11227138

> <PUBCHEM_CONFORMER_RMSD>
1.2

> <PUBCHEM_CONFORMER_DIVERSEORDER>
2
46
39
22
16
26
47
37
31
11
29
28
23
45
8
27
44
9
21
43
35
40
36
41
4
25
6
33
15
24
42
10
13
32
38
30
12
1
34
17
5
14
18
3
19
20
7

> <PUBCHEM_MMFF94_PARTIAL_CHARGES>
21
1 -0.43
100 0.45
2 -0.57
24 0.28
29 0.71
3 -0.36
34 -0.14
36 -0.18
37 0.03
38 -0.15
39 -0.15
4 -0.53
40 0.08
41 -0.15
42 0.08
43 0.28
92 0.15
96 0.15
97 0.15
98 0.15
99 0.15

> <PUBCHEM_EFFECTIVE_ROTOR_COUNT>
13.2

> <PUBCHEM_PHARMACOPHORE_FEATURES>
12
1 2 acceptor
1 26 hydrophobe
1 3 acceptor
1 35 hydrophobe
1 4 donor
3 30 32 33 hydrophobe
5 5 6 10 14 16 rings
6 20 25 27 28 30 31 hydrophobe
6 37 38 39 40 41 42 rings
6 5 6 7 8 11 13 rings
6 7 8 9 12 15 17 rings
6 9 12 18 21 23 24 rings

> <PUBCHEM_HEAVY_ATOM_COUNT>
43

> <PUBCHEM_ATOM_DEF_STEREO_COUNT>
10

> <PUBCHEM_ATOM_UDEF_STEREO_COUNT>
0

> <PUBCHEM_BOND_DEF_STEREO_COUNT>
1

> <PUBCHEM_BOND_UDEF_STEREO_COUNT>
0

> <PUBCHEM_ISOTOPIC_ATOM_COUNT>
0

> <PUBCHEM_COMPONENT_COUNT>
1

> <PUBCHEM_CACTVS_TAUTO_COUNT>
3

> <PUBCHEM_CONFORMER_ID>
00AB500200000002

> <PUBCHEM_MMFF94_ENERGY>
146.1822

> <PUBCHEM_FEATURE_SELFOVERLAP>
60.993

> <PUBCHEM_SHAPE_FINGERPRINT>
10162869 55 18113621183747521247
10533779 47 14273451479936514360
11061554 47 18040434361082154429
11409948 35 13695859294964404944
12013929 94 18342740737671264019
12559415 86 7853577950387338483
12559415 90 18260827052149582565
12664476 115 17748827414912654141
131240 100 18272088327392095787
14344974 52 18202562903926414217
15061470 23 18260547802087302653
15065858 18 18410573951440721839
15289351 153 13190334665662639879
15392192 104 18131071511386086134
15840311 113 17967541163738900598
16728433 110 18272088297296091577
21792934 111 17894352181475025164
21792961 116 13551186689775943127
335352 9 17822020791186814959
395649 100 18041003956515735155
4173938 188 18409729573728843811
4874694 18 18334580135455531363
6081469 158 14923948925110560007
6673363 416 17632582630835989761
67123 10 18411700959765579291
9663363 56 16298107583562740276
9937071 3 12757150173841968144

> <PUBCHEM_SHAPE_MULTIPOLES>
861.44
52.16
2.67
1.57
77.46
0.12
0.18
-27.1
7.95
-1.91
0.5
-4.68
-0.41
0.91

> <PUBCHEM_SHAPE_SELFOVERLAP>
1796.329

> <PUBCHEM_SHAPE_VOLUME>
488

> <PUBCHEM_COORDINATE_TYPE>
2
5
10

$$$$
