192547
  -OEChem-12031822503D

 36 38  0     1  0  0  0  0  0999 V2000
   -1.6472   -1.2538   -1.0673 O   0  0  0  0  0  0  0  0  0  0  0  0
   -3.6934    1.6288    0.2559 O   0  0  0  0  0  0  0  0  0  0  0  0
   -5.1744    0.0782   -0.5577 O   0  0  0  0  0  0  0  0  0  0  0  0
    3.0925    2.3589   -0.5752 O   0  0  0  0  0  0  0  0  0  0  0  0
    3.0124   -2.3289    0.4014 O   0  0  0  0  0  0  0  0  0  0  0  0
    4.4372    0.0202    0.0532 O   0  0  0  0  0  0  0  0  0  0  0  0
   -1.9349    0.1940    0.8149 C   0  0  1  0  0  0  0  0  0  0  0  0
   -3.1769   -0.6349    0.6398 C   0  0  2  0  0  0  0  0  0  0  0  0
   -1.1994   -0.0019   -0.5171 C   0  0  1  0  0  0  0  0  0  0  0  0
   -2.7537   -1.7397   -0.2965 C   0  0  0  0  0  0  0  0  0  0  0  0
   -2.4781    1.5883    1.0154 C   0  0  0  0  0  0  0  0  0  0  0  0
   -4.1406    0.3539    0.0308 C   0  0  0  0  0  0  0  0  0  0  0  0
    0.3029    0.0041   -0.3647 C   0  0  0  0  0  0  0  0  0  0  0  0
    0.9786   -1.1755   -0.0477 C   0  0  0  0  0  0  0  0  0  0  0  0
    1.0193    1.1895   -0.5401 C   0  0  0  0  0  0  0  0  0  0  0  0
    2.4070    1.1951   -0.3988 C   0  0  0  0  0  0  0  0  0  0  0  0
    2.3663   -1.1698    0.0937 C   0  0  0  0  0  0  0  0  0  0  0  0
    3.0805    0.0155   -0.0819 C   0  0  0  0  0  0  0  0  0  0  0  0
    3.2937    3.1737    0.5779 C   0  0  0  0  0  0  0  0  0  0  0  0
    2.2083   -3.4956    0.5640 C   0  0  0  0  0  0  0  0  0  0  0  0
   -1.3268   -0.1364    1.6643 H   0  0  0  0  0  0  0  0  0  0  0  0
   -3.6065   -0.9958    1.5790 H   0  0  0  0  0  0  0  0  0  0  0  0
   -1.4848    0.7619   -1.2520 H   0  0  0  0  0  0  0  0  0  0  0  0
   -2.3991   -2.6102    0.2655 H   0  0  0  0  0  0  0  0  0  0  0  0
   -3.5450   -2.0661   -0.9774 H   0  0  0  0  0  0  0  0  0  0  0  0
   -2.7283    1.7834    2.0636 H   0  0  0  0  0  0  0  0  0  0  0  0
   -1.7983    2.3690    0.6626 H   0  0  0  0  0  0  0  0  0  0  0  0
    0.3799   -2.0680    0.0933 H   0  0  0  0  0  0  0  0  0  0  0  0
    0.4994    2.1120   -0.7871 H   0  0  0  0  0  0  0  0  0  0  0  0
    4.7269   -0.8822    0.2731 H   0  0  0  0  0  0  0  0  0  0  0  0
    3.8665    2.6325    1.3376 H   0  0  0  0  0  0  0  0  0  0  0  0
    2.3328    3.4970    0.9910 H   0  0  0  0  0  0  0  0  0  0  0  0
    3.8607    4.0590    0.2772 H   0  0  0  0  0  0  0  0  0  0  0  0
    1.5195   -3.3971    1.4101 H   0  0  0  0  0  0  0  0  0  0  0  0
    2.8859   -4.3222    0.8026 H   0  0  0  0  0  0  0  0  0  0  0  0
    1.6947   -3.7658   -0.3650 H   0  0  0  0  0  0  0  0  0  0  0  0
  1  9  1  0  0  0  0
  1 10  1  0  0  0  0
  2 11  1  0  0  0  0
  2 12  1  0  0  0  0
  3 12  2  0  0  0  0
  4 16  1  0  0  0  0
  4 19  1  0  0  0  0
  5 17  1  0  0  0  0
  5 20  1  0  0  0  0
  6 18  1  0  0  0  0
  6 30  1  0  0  0  0
  7  8  1  0  0  0  0
  7  9  1  0  0  0  0
  7 11  1  0  0  0  0
  7 21  1  0  0  0  0
  8 10  1  0  0  0  0
  8 12  1  0  0  0  0
  8 22  1  0  0  0  0
  9 13  1  0  0  0  0
  9 23  1  0  0  0  0
 10 24  1  0  0  0  0
 10 25  1  0  0  0  0
 11 26  1  0  0  0  0
 11 27  1  0  0  0  0
 13 14  2  0  0  0  0
 13 15  1  0  0  0  0
 14 17  1  0  0  0  0
 14 28  1  0  0  0  0
 15 16  2  0  0  0  0
 15 29  1  0  0  0  0
 16 18  1  0  0  0  0
 17 18  2  0  0  0  0
 19 31  1  0  0  0  0
 19 32  1  0  0  0  0
 19 33  1  0  0  0  0
 20 34  1  0  0  0  0
 20 35  1  0  0  0  0
 20 36  1  0  0  0  0
M  END
> <PUBCHEM_COMPOUND_CID>
192547

> <PUBCHEM_CONFORMER_RMSD>
0.6

> <PUBCHEM_CONFORMER_DIVERSEORDER>
1
10
12
11
13
6
5
8
3
4
7
9
2

> <PUBCHEM_MMFF94_PARTIAL_CHARGES>
22
1 -0.56
10 0.28
11 0.28
12 0.66
13 -0.14
14 -0.15
15 -0.15
16 0.08
17 0.08
18 0.08
19 0.28
2 -0.43
20 0.28
28 0.15
29 0.15
3 -0.57
30 0.45
4 -0.36
5 -0.36
6 -0.53
8 0.06
9 0.42

> <PUBCHEM_EFFECTIVE_ROTOR_COUNT>
4

> <PUBCHEM_PHARMACOPHORE_FEATURES>
8
1 1 acceptor
1 3 acceptor
1 4 acceptor
1 5 acceptor
1 6 donor
5 1 7 8 9 10 rings
5 2 7 8 11 12 rings
6 13 14 15 16 17 18 rings

> <PUBCHEM_HEAVY_ATOM_COUNT>
20

> <PUBCHEM_ATOM_DEF_STEREO_COUNT>
3

> <PUBCHEM_ATOM_UDEF_STEREO_COUNT>
0

> <PUBCHEM_BOND_DEF_STEREO_COUNT>
0

> <PUBCHEM_BOND_UDEF_STEREO_COUNT>
0

> <PUBCHEM_ISOTOPIC_ATOM_COUNT>
0

> <PUBCHEM_COMPONENT_COUNT>
1

> <PUBCHEM_CACTVS_TAUTO_COUNT>
4

> <PUBCHEM_CONFORMER_ID>
0002F02300000001

> <PUBCHEM_MMFF94_ENERGY>
67.8229

> <PUBCHEM_FEATURE_SELFOVERLAP>
41.094

> <PUBCHEM_SHAPE_FINGERPRINT>
10366900 7 18114191817122920552
10616163 171 18340771532649953743
11370993 70 18335420226520516442
11471102 20 18335139769799220782
12107183 9 17763184644358190593
12236239 1 18202844348669652591
12251169 10 18411982438124692766
12403260 363 18270675343302527725
12507560 14 17979914912952798371
12553582 1 17975688399247209698
13140716 1 18263638632072244402
13533116 47 18335986389753111595
13583140 156 18334584538065437395
14178342 30 18043813293225647850
14289901 80 18411983585113076179
14787075 74 17481147121236415697
14790565 3 18335150829862851884
14866123 147 16320337166045636978
15442244 35 18194685864890693705
15669948 3 17846215613618095207
17349148 13 17845929620362188839
17492 89 18411140225546719819
18681886 176 17988921176379487518
19050596 39 18411703222263707145
192875 21 18129090118396874553
200 152 18343015597611822823
201361 129 18411706503977553720
20157964 124 18408878526159503837
20645477 70 18260827064317182959
20715895 44 17838054806758545785
20739085 24 18113898303891404516
21267235 1 18340217340113210719
21524375 3 18200037394653485500
22445834 79 18410577262275061362
2255824 54 18408608058920475262
22854114 111 18411141372012181320
23402539 116 18130782340159815981
23557571 272 14333126347835556299
23559900 14 18340200800125634203
3091708 16 9184808282030406130
3545911 37 18334861640665207237
4409770 3 16963224982413460948
474 4 18189619508874022308
5104073 3 18336551602953650201
58051976 100 18410857668047554255
633830 44 18269840972642871036
67856867 119 18340476850489837896
7097593 13 18338801087490065122
7364860 26 18411139113112415838
8272917 22 18409170978302749374
84936 182 18271245027422012120
9709674 26 18410864239416556267
9981440 41 18120930878634912248

> <PUBCHEM_SHAPE_MULTIPOLES>
376.37
8.41
3.04
0.87
4.21
0.62
0.04
-1.91
0.23
-3.68
0.65
0.25
-0.05
-0.68

> <PUBCHEM_SHAPE_SELFOVERLAP>
816.953

> <PUBCHEM_SHAPE_VOLUME>
209.4

> <PUBCHEM_COORDINATE_TYPE>
2
5
10

$$$$
