129834291
  -OEChem-12031822553D

 56 58  0     1  0  0  0  0  0999 V2000
   -2.2687   -1.0992   -0.9263 O   0  0  0  0  0  0  0  0  0  0  0  0
   -0.4504   -0.7253    2.2398 O   0  0  0  0  0  0  0  0  0  0  0  0
   -2.0044   -3.1917    2.6086 O   0  0  0  0  0  0  0  0  0  0  0  0
   -2.2879   -4.6099    0.1156 O   0  0  0  0  0  0  0  0  0  0  0  0
   -2.8294   -2.2539   -3.3542 O   0  0  0  0  0  0  0  0  0  0  0  0
   -3.9795    3.4481    0.8224 O   0  0  0  0  0  0  0  0  0  0  0  0
    0.4521    3.9651   -0.8449 O   0  0  0  0  0  0  0  0  0  0  0  0
    1.0406    0.9028   -2.0764 O   0  0  0  0  0  0  0  0  0  0  0  0
   -1.5210   -1.1560    1.3995 C   0  0  2  0  0  0  0  0  0  0  0  0
   -1.5357   -2.6865    1.3570 C   0  0  2  0  0  0  0  0  0  0  0  0
   -1.3107   -0.5690   -0.0047 C   0  0  2  0  0  0  0  0  0  0  0  0
   -2.4673   -3.2035    0.2609 C   0  0  1  0  0  0  0  0  0  0  0  0
   -2.1699   -2.5165   -1.0732 C   0  0  1  0  0  0  0  0  0  0  0  0
   -1.4498    0.9408   -0.0144 C   0  0  0  0  0  0  0  0  0  0  0  0
   -3.1586   -2.9344   -2.1569 C   0  0  0  0  0  0  0  0  0  0  0  0
   -0.4026    1.7599   -0.4364 C   0  0  0  0  0  0  0  0  0  0  0  0
   -2.6520    1.5078    0.4086 C   0  0  0  0  0  0  0  0  0  0  0  0
   -0.5576    3.1460   -0.4357 C   0  0  0  0  0  0  0  0  0  0  0  0
   -2.8070    2.8940    0.4092 C   0  0  0  0  0  0  0  0  0  0  0  0
    0.8565    1.1727   -0.8821 C   0  0  0  0  0  0  0  0  0  0  0  0
   -1.7598    3.7132   -0.0130 C   0  0  0  0  0  0  0  0  0  0  0  0
    1.9339    0.9329    0.1326 C   0  0  0  0  0  0  0  0  0  0  0  0
    4.2340    0.1550    0.7377 C   0  0  1  0  0  0  0  0  0  0  0  0
    3.1144    0.4117   -0.2287 C   0  0  0  0  0  0  0  0  0  0  0  0
    4.5574   -1.3595    0.8244 C   0  0  0  0  0  0  0  0  0  0  0  0
    5.4275    1.0088    0.3823 C   0  0  0  0  0  0  0  0  0  0  0  0
    5.7707   -1.7893    0.0453 C   0  0  0  0  0  0  0  0  0  0  0  0
   -5.0082    2.5527    1.2418 C   0  0  0  0  0  0  0  0  0  0  0  0
    6.5519    0.4971   -0.1382 C   0  0  0  0  0  0  0  0  0  0  0  0
    6.6815   -0.9137   -0.4007 C   0  0  0  0  0  0  0  0  0  0  0  0
   -2.4515   -0.8074    1.8601 H   0  0  0  0  0  0  0  0  0  0  0  0
   -0.5222   -3.0845    1.2283 H   0  0  0  0  0  0  0  0  0  0  0  0
   -0.3189   -0.8667   -0.3603 H   0  0  0  0  0  0  0  0  0  0  0  0
   -3.5108   -3.0351    0.5541 H   0  0  0  0  0  0  0  0  0  0  0  0
   -1.1586   -2.7610   -1.4259 H   0  0  0  0  0  0  0  0  0  0  0  0
   -4.1803   -2.6512   -1.8828 H   0  0  0  0  0  0  0  0  0  0  0  0
   -3.1193   -4.0119   -2.3431 H   0  0  0  0  0  0  0  0  0  0  0  0
    0.3821   -1.0543    1.8600 H   0  0  0  0  0  0  0  0  0  0  0  0
   -2.9021   -2.8486    2.7568 H   0  0  0  0  0  0  0  0  0  0  0  0
   -1.3679   -4.7690   -0.1563 H   0  0  0  0  0  0  0  0  0  0  0  0
   -3.4458    0.8331    0.7088 H   0  0  0  0  0  0  0  0  0  0  0  0
   -3.4731   -2.5310   -4.0282 H   0  0  0  0  0  0  0  0  0  0  0  0
   -1.8815    4.7935   -0.0122 H   0  0  0  0  0  0  0  0  0  0  0  0
    1.7230    1.2030    1.1619 H   0  0  0  0  0  0  0  0  0  0  0  0
    3.9114    0.4623    1.7426 H   0  0  0  0  0  0  0  0  0  0  0  0
    3.2979    0.1482   -1.2683 H   0  0  0  0  0  0  0  0  0  0  0  0
    3.6963   -1.9574    0.4996 H   0  0  0  0  0  0  0  0  0  0  0  0
    4.7328   -1.6269    1.8750 H   0  0  0  0  0  0  0  0  0  0  0  0
    1.2151    3.4465   -1.1462 H   0  0  0  0  0  0  0  0  0  0  0  0
    5.3597    2.0804    0.5506 H   0  0  0  0  0  0  0  0  0  0  0  0
    5.9095   -2.8502   -0.1393 H   0  0  0  0  0  0  0  0  0  0  0  0
   -5.8657    3.1642    1.5413 H   0  0  0  0  0  0  0  0  0  0  0  0
   -4.7060    1.9749    2.1219 H   0  0  0  0  0  0  0  0  0  0  0  0
   -5.3452    1.9129    0.4191 H   0  0  0  0  0  0  0  0  0  0  0  0
    7.3879    1.1398   -0.3909 H   0  0  0  0  0  0  0  0  0  0  0  0
    7.5538   -1.2514   -0.9492 H   0  0  0  0  0  0  0  0  0  0  0  0
  1 11  1  0  0  0  0
  1 13  1  0  0  0  0
  2  9  1  0  0  0  0
  2 38  1  0  0  0  0
  3 10  1  0  0  0  0
  3 39  1  0  0  0  0
  4 12  1  0  0  0  0
  4 40  1  0  0  0  0
  5 15  1  0  0  0  0
  5 42  1  0  0  0  0
  6 19  1  0  0  0  0
  6 28  1  0  0  0  0
  7 18  1  0  0  0  0
  7 49  1  0  0  0  0
  8 20  2  0  0  0  0
  9 10  1  0  0  0  0
  9 11  1  0  0  0  0
  9 31  1  0  0  0  0
 10 12  1  0  0  0  0
 10 32  1  0  0  0  0
 11 14  1  0  0  0  0
 11 33  1  0  0  0  0
 12 13  1  0  0  0  0
 12 34  1  0  0  0  0
 13 15  1  0  0  0  0
 13 35  1  0  0  0  0
 14 16  2  0  0  0  0
 14 17  1  0  0  0  0
 15 36  1  0  0  0  0
 15 37  1  0  0  0  0
 16 18  1  0  0  0  0
 16 20  1  0  0  0  0
 17 19  2  0  0  0  0
 17 41  1  0  0  0  0
 18 21  2  0  0  0  0
 19 21  1  0  0  0  0
 20 22  1  0  0  0  0
 21 43  1  0  0  0  0
 22 24  2  0  0  0  0
 22 44  1  0  0  0  0
 23 24  1  0  0  0  0
 23 25  1  0  0  0  0
 23 26  1  0  0  0  0
 23 45  1  0  0  0  0
 24 46  1  0  0  0  0
 25 27  1  0  0  0  0
 25 47  1  0  0  0  0
 25 48  1  0  0  0  0
 26 29  2  0  0  0  0
 26 50  1  0  0  0  0
 27 30  2  0  0  0  0
 27 51  1  0  0  0  0
 28 52  1  0  0  0  0
 28 53  1  0  0  0  0
 28 54  1  0  0  0  0
 29 30  1  0  0  0  0
 29 55  1  0  0  0  0
 30 56  1  0  0  0  0
M  END
> <PUBCHEM_COMPOUND_CID>
129834291

> <PUBCHEM_CONFORMER_RMSD>
1

> <PUBCHEM_CONFORMER_DIVERSEORDER>
1
155
83
157
143
92
106
40
101
70
56
132
125
108
152
126
21
76
85
32
24
130
58
72
61
144
71
25
151
34
123
43
65
17
147
81
121
82
52
102
8
48
57
122
46
44
54
27
142
136
13
89
18
39
162
30
23
167
38
37
158
160
7
148
31
84
12
63
133
49
79
115
140
96
47
66
88
161
128
113
59
103
78
51
141
77
3
98
2
87
10
139
80
149
165
120
36
53
156
163
124
9
67
33
41
118
20
145
166
107
14
68
62
35
127
69
15
109
111
159
50
26
6
116
137
90
93
22
55
104
73
146
60
114
138
86
45
42
29
75
64
11
135
100
117
131
97
112
154
16
99
4
129
5
91
94
28
19
119
150
105
95
164
134
110
74
153
168

> <PUBCHEM_MMFF94_PARTIAL_CHARGES>
43
1 -0.56
10 0.28
11 0.42
12 0.28
13 0.28
14 -0.14
15 0.28
16 0.09
17 -0.15
18 0.08
19 0.08
2 -0.68
20 0.47
21 -0.15
22 -0.14
23 0.28
24 -0.29
25 0.14
26 -0.29
27 -0.29
28 0.28
29 -0.15
3 -0.68
30 -0.15
38 0.4
39 0.4
4 -0.68
40 0.4
41 0.15
42 0.4
43 0.15
44 0.15
46 0.15
49 0.45
5 -0.68
50 0.15
51 0.15
55 0.15
56 0.15
6 -0.36
7 -0.53
8 -0.57
9 0.28

> <PUBCHEM_EFFECTIVE_ROTOR_COUNT>
7.6

> <PUBCHEM_PHARMACOPHORE_FEATURES>
15
1 1 acceptor
1 2 acceptor
1 2 donor
1 3 acceptor
1 3 donor
1 4 acceptor
1 4 donor
1 5 acceptor
1 5 donor
1 6 acceptor
1 7 donor
1 8 acceptor
6 1 9 10 11 12 13 rings
6 14 16 17 18 19 21 rings
6 23 25 26 27 29 30 rings

> <PUBCHEM_HEAVY_ATOM_COUNT>
30

> <PUBCHEM_ATOM_DEF_STEREO_COUNT>
4

> <PUBCHEM_ATOM_UDEF_STEREO_COUNT>
2

> <PUBCHEM_BOND_DEF_STEREO_COUNT>
0

> <PUBCHEM_BOND_UDEF_STEREO_COUNT>
1

> <PUBCHEM_ISOTOPIC_ATOM_COUNT>
0

> <PUBCHEM_COMPONENT_COUNT>
1

> <PUBCHEM_CACTVS_TAUTO_COUNT>
41

> <PUBCHEM_CONFORMER_ID>
07BD1D3300000001

> <PUBCHEM_MMFF94_ENERGY>
92.8708

> <PUBCHEM_FEATURE_SELFOVERLAP>
76.141

> <PUBCHEM_SHAPE_FINGERPRINT>
11115154 58 18055328475057952247
11297010 23 17037522290170010564
11552529 35 18201997733849629064
11720765 8 17482526974729101117
12597179 24 17774158972725277676
12788726 201 18337375093828305899
13004483 165 18056458759240030982
14068700 686 18198617929938076160
14659021 117 18337377336291565570
14844126 61 18342736351164274782
14866123 147 18410855439033439099
15042514 8 18335991917038580409
15131766 46 15722247259429777380
15230672 131 18048885088064860454
15250474 111 18188760670788116786
15361156 5 18337684036064990366
15420108 30 17983007848464252145
15849732 13 17895765001844664861
19315092 285 16483306212552369650
21133410 171 17471796724622129106
21133665 82 17977954480269765734
21703447 108 18055336188471010392
21795232 338 18340498837266170232
23559900 14 18045488975075203008
23598288 3 18189920736120068309
23728640 28 18336553728550972075
255183 313 18200607921092682793
3380486 77 17485081135223213239
3610482 184 18042424490598093942
4073 2 18408888426475774482
44062 13 18343019957183223018
463206 1 17756990378237475250
469060 322 13254793576967851647
484985 159 17894916255976889283
508706 21 18342745079245111870
5309563 4 18048601709636759922
57527295 17 17689992767038366815
5912855 24 18263097655034697020
5924683 9 18342449357655417484
59755656 520 18269270175357262861
613672 6 17978206568579220346
6669772 16 18053666875968570015

> <PUBCHEM_SHAPE_MULTIPOLES>
570.43
11.56
5.5
1.87
25.45
1.04
0.59
0.22
-0.96
-8.61
0.16
-2.11
1.85
-1.76

> <PUBCHEM_SHAPE_SELFOVERLAP>
1210.017

> <PUBCHEM_SHAPE_VOLUME>
315.9

> <PUBCHEM_COORDINATE_TYPE>
2
5
10

$$$$
