68146761
  -OEChem-12031822553D

 33 34  0     1  0  0  0  0  0999 V2000
   -1.8815   -1.7477    1.7790 O   0  0  0  0  0  0  0  0  0  0  0  0
   -2.2386    2.6909   -0.2197 O   0  0  0  0  0  0  0  0  0  0  0  0
   -5.4199   -0.7625   -1.2121 O   0  0  0  0  0  0  0  0  0  0  0  0
    1.3610   -1.0935   -1.6597 O   0  0  0  0  0  0  0  0  0  0  0  0
   -1.8672    0.4772    0.7537 C   0  0  2  0  0  0  0  0  0  0  0  0
   -2.7157   -0.6553    1.3998 C   0  0  1  0  0  0  0  0  0  0  0  0
   -2.7273    1.4092   -0.0746 C   0  0  0  0  0  0  0  0  0  0  0  0
   -3.8412   -1.1373    0.5187 C   0  0  0  0  0  0  0  0  0  0  0  0
   -0.7354   -0.0560   -0.0834 C   0  0  0  0  0  0  0  0  0  0  0  0
   -3.8878    1.0072   -0.6220 C   0  0  0  0  0  0  0  0  0  0  0  0
   -4.3667   -0.3451   -0.4282 C   0  0  0  0  0  0  0  0  0  0  0  0
    0.5563    0.1599    0.2004 C   0  0  0  0  0  0  0  0  0  0  0  0
    1.6165   -0.4113   -0.6734 C   0  0  0  0  0  0  0  0  0  0  0  0
    3.0293   -0.1589   -0.2994 C   0  0  0  0  0  0  0  0  0  0  0  0
    3.3737    1.0114    0.3770 C   0  0  0  0  0  0  0  0  0  0  0  0
    4.0135   -1.0929   -0.6227 C   0  0  0  0  0  0  0  0  0  0  0  0
    4.7023    1.2478    0.7300 C   0  0  0  0  0  0  0  0  0  0  0  0
    5.3420   -0.8566   -0.2697 C   0  0  0  0  0  0  0  0  0  0  0  0
    5.6865    0.3137    0.4066 C   0  0  0  0  0  0  0  0  0  0  0  0
   -1.4452    1.0563    1.5879 H   0  0  0  0  0  0  0  0  0  0  0  0
   -3.1659   -0.2716    2.3250 H   0  0  0  0  0  0  0  0  0  0  0  0
   -4.2441   -2.1310    0.6922 H   0  0  0  0  0  0  0  0  0  0  0  0
   -1.0103   -0.6382   -0.9607 H   0  0  0  0  0  0  0  0  0  0  0  0
   -4.4924    1.6823   -1.2185 H   0  0  0  0  0  0  0  0  0  0  0  0
    0.8262    0.7155    1.0900 H   0  0  0  0  0  0  0  0  0  0  0  0
   -2.4395   -2.4092    2.2226 H   0  0  0  0  0  0  0  0  0  0  0  0
   -2.8689    3.1938   -0.7639 H   0  0  0  0  0  0  0  0  0  0  0  0
   -5.6446   -1.6758   -0.9637 H   0  0  0  0  0  0  0  0  0  0  0  0
    2.6458    1.7805    0.6165 H   0  0  0  0  0  0  0  0  0  0  0  0
    3.7637   -2.0124   -1.1454 H   0  0  0  0  0  0  0  0  0  0  0  0
    4.9724    2.1626    1.2494 H   0  0  0  0  0  0  0  0  0  0  0  0
    6.1085   -1.5840   -0.5209 H   0  0  0  0  0  0  0  0  0  0  0  0
    6.7213    0.4984    0.6799 H   0  0  0  0  0  0  0  0  0  0  0  0
  1  6  1  0  0  0  0
  1 26  1  0  0  0  0
  2  7  1  0  0  0  0
  2 27  1  0  0  0  0
  3 11  1  0  0  0  0
  3 28  1  0  0  0  0
  4 13  2  0  0  0  0
  5  6  1  0  0  0  0
  5  7  1  0  0  0  0
  5  9  1  0  0  0  0
  5 20  1  0  0  0  0
  6  8  1  0  0  0  0
  6 21  1  0  0  0  0
  7 10  2  0  0  0  0
  8 11  2  0  0  0  0
  8 22  1  0  0  0  0
  9 12  2  0  0  0  0
  9 23  1  0  0  0  0
 10 11  1  0  0  0  0
 10 24  1  0  0  0  0
 12 13  1  0  0  0  0
 12 25  1  0  0  0  0
 13 14  1  0  0  0  0
 14 15  2  0  0  0  0
 14 16  1  0  0  0  0
 15 17  1  0  0  0  0
 15 29  1  0  0  0  0
 16 18  2  0  0  0  0
 16 30  1  0  0  0  0
 17 19  2  0  0  0  0
 17 31  1  0  0  0  0
 18 19  1  0  0  0  0
 18 32  1  0  0  0  0
 19 33  1  0  0  0  0
M  END
> <PUBCHEM_COMPOUND_CID>
68146761

> <PUBCHEM_CONFORMER_RMSD>
0.6

> <PUBCHEM_CONFORMER_DIVERSEORDER>
1
16
40
15
6
36
26
28
11
5
47
51
50
78
49
32
17
69
34
18
71
74
4
62
2
35
59
31
27
43
61
42
10
3
53
19
8
77
65
13
70
7
21
9
38
12
45
22
25
54
79
55
33
14
72
44
76
20
57
46
24
29
39
67
58
73
75
60
66
23
52
63
37
56
48
64
30
68
41

> <PUBCHEM_MMFF94_PARTIAL_CHARGES>
31
1 -0.68
10 -0.15
11 0.08
12 -0.14
13 0.47
14 0.09
15 -0.15
16 -0.15
17 -0.15
18 -0.15
19 -0.15
2 -0.53
22 0.15
23 0.15
24 0.15
25 0.15
26 0.4
27 0.45
28 0.45
29 0.15
3 -0.53
30 0.15
31 0.15
32 0.15
33 0.15
4 -0.57
5 0.28
6 0.42
7 -0.06
8 -0.29
9 -0.29

> <PUBCHEM_EFFECTIVE_ROTOR_COUNT>
3.4

> <PUBCHEM_PHARMACOPHORE_FEATURES>
7
1 1 acceptor
1 1 donor
1 2 donor
1 3 donor
1 4 acceptor
6 14 15 16 17 18 19 rings
6 5 6 7 8 10 11 rings

> <PUBCHEM_HEAVY_ATOM_COUNT>
19

> <PUBCHEM_ATOM_DEF_STEREO_COUNT>
0

> <PUBCHEM_ATOM_UDEF_STEREO_COUNT>
2

> <PUBCHEM_BOND_DEF_STEREO_COUNT>
0

> <PUBCHEM_BOND_UDEF_STEREO_COUNT>
1

> <PUBCHEM_ISOTOPIC_ATOM_COUNT>
0

> <PUBCHEM_COMPONENT_COUNT>
1

> <PUBCHEM_CACTVS_TAUTO_COUNT>
18

> <PUBCHEM_CONFORMER_ID>
040FD64900000001

> <PUBCHEM_MMFF94_ENERGY>
45.5688

> <PUBCHEM_FEATURE_SELFOVERLAP>
35.522

> <PUBCHEM_SHAPE_FINGERPRINT>
10 15 18341319094774355496
10366900 7 18409735062496457802
11089746 13 16298382479024047900
11128504 68 14764342773766907136
11315181 36 17530970198127751016
11370993 70 18260830397391211642
11615757 297 16988847176537108608
12107183 9 17467058658207034800
12236239 1 15698285507835640304
12293681 160 18188474789116892369
12507557 5 17846777408204260288
12596602 18 16950845916146451688
12670546 56 18187358797139841344
128620 24 16917069953537550764
12916754 54 17704078352038609502
13533116 47 18114454552952039235
13583140 156 18411139156136046002
14251764 38 18409169913430967444
14573314 32 18259987050671521582
14848160 23 18335137621999269491
15375358 24 18408045112787254578
15788980 27 18342177756703038190
15961568 22 17968661635493825316
17349148 13 17967256403017236455
17844677 252 18201443558414380888
17980427 23 18260557718428369901
187816 3 18113614595615465383
18927931 339 18335712636737273967
192875 21 18041284334956726989
19489759 90 18186517696103037041
200 152 17561362877014982377
20279233 1 18408895031006853906
20300324 65 18412260619394334657
204376 136 17561085817317672766
20645477 56 18264214604245622893
20645477 70 17988646242859612630
21033648 29 18130493176796279728
21682296 61 17773326638888167886
22224240 67 9871474244964766221
22854114 59 18060142046136558016
23402539 116 18333728009822623757
23557571 272 18410297969157821437
23559900 14 18187925131190252056
314173 85 15140678060524430942
351380 180 18410572890151263400
4214541 1 18409450250193280680
4325135 7 17418091044121825749
474229 33 17775282789631263678
5104073 3 18271808965275407968
5283173 99 18336539413699962981
53917941 68 17969494919331083781
542803 24 10809342243760340010
559249 180 16081082697185903835
6913067 236 18202274823026264700
7495541 125 16988554753857773394
90127 26 18341903965660281312
9709674 26 18338526239590090742

> <PUBCHEM_SHAPE_MULTIPOLES>
367.53
12.83
1.63
1.19
6.81
0.65
0.16
-0.67
-0.77
-0.73
0.04
-0.68
-0.43
1.14

> <PUBCHEM_SHAPE_SELFOVERLAP>
781.998

> <PUBCHEM_SHAPE_VOLUME>
202.1

> <PUBCHEM_COORDINATE_TYPE>
2
5
10

$$$$
