93484
  -OEChem-12031822543D

 46 45  0     1  0  0  0  0  0999 V2000
    1.1914    2.6631    1.9262 O   0  0  0  0  0  0  0  0  0  0  0  0
   -1.1394    3.7860    0.9844 O   0  0  0  0  0  0  0  0  0  0  0  0
   -6.1650   -1.6530    0.4991 O   0  0  0  0  0  0  0  0  0  0  0  0
    2.5637    0.5662    0.5151 C   0  0  0  0  0  0  0  0  0  0  0  0
    1.7739    1.6774   -0.1880 C   0  0  0  0  0  0  0  0  0  0  0  0
    3.7120    0.0127   -0.3359 C   0  0  0  0  0  0  0  0  0  0  0  0
    0.6384    2.2213    0.6859 C   0  0  2  0  0  0  0  0  0  0  0  0
    4.5517   -1.0449    0.3846 C   0  0  0  0  0  0  0  0  0  0  0  0
   -0.1563    3.3676    0.0280 C   0  0  1  0  0  0  0  0  0  0  0  0
    5.7219   -1.5113   -0.4844 C   0  0  0  0  0  0  0  0  0  0  0  0
    6.5818   -2.5402    0.2491 C   0  0  0  0  0  0  0  0  0  0  0  0
   -0.8896    3.0181   -1.2758 C   0  0  0  0  0  0  0  0  0  0  0  0
    7.7266   -3.0319   -0.6220 C   0  0  0  0  0  0  0  0  0  0  0  0
   -1.7996    1.8755   -1.1232 C   0  0  0  0  0  0  0  0  0  0  0  0
   -2.5529    0.9515   -0.9813 C   0  0  0  0  0  0  0  0  0  0  0  0
   -3.4254   -0.0893   -0.7892 C   0  0  0  0  0  0  0  0  0  0  0  0
   -4.1945   -0.9931   -0.6061 C   0  0  0  0  0  0  0  0  0  0  0  0
   -5.1353   -2.0970   -0.3775 C   0  0  1  0  0  0  0  0  0  0  0  0
   -4.3936   -3.2869    0.1681 C   0  0  0  0  0  0  0  0  0  0  0  0
   -4.6098   -3.8919    1.3427 C   0  0  0  0  0  0  0  0  0  0  0  0
    1.8835   -0.2536    0.7770 H   0  0  0  0  0  0  0  0  0  0  0  0
    2.9809    0.9461    1.4554 H   0  0  0  0  0  0  0  0  0  0  0  0
    1.3754    1.2909   -1.1322 H   0  0  0  0  0  0  0  0  0  0  0  0
    2.4657    2.4935   -0.4311 H   0  0  0  0  0  0  0  0  0  0  0  0
    3.3016   -0.4155   -1.2587 H   0  0  0  0  0  0  0  0  0  0  0  0
    4.3627    0.8439   -0.6352 H   0  0  0  0  0  0  0  0  0  0  0  0
   -0.0389    1.3976    0.9424 H   0  0  0  0  0  0  0  0  0  0  0  0
    4.9359   -0.6278    1.3233 H   0  0  0  0  0  0  0  0  0  0  0  0
    3.9176   -1.9005    0.6460 H   0  0  0  0  0  0  0  0  0  0  0  0
    0.5002    4.2284   -0.1468 H   0  0  0  0  0  0  0  0  0  0  0  0
    5.3362   -1.9474   -1.4140 H   0  0  0  0  0  0  0  0  0  0  0  0
    6.3409   -0.6501   -0.7638 H   0  0  0  0  0  0  0  0  0  0  0  0
    5.9653   -3.3961    0.5474 H   0  0  0  0  0  0  0  0  0  0  0  0
    6.9899   -2.0990    1.1658 H   0  0  0  0  0  0  0  0  0  0  0  0
   -0.1643    2.8118   -2.0700 H   0  0  0  0  0  0  0  0  0  0  0  0
   -1.4779    3.8867   -1.5964 H   0  0  0  0  0  0  0  0  0  0  0  0
    0.4537    2.8061    2.5429 H   0  0  0  0  0  0  0  0  0  0  0  0
    7.3501   -3.5096   -1.5322 H   0  0  0  0  0  0  0  0  0  0  0  0
    8.3289   -3.7659   -0.0776 H   0  0  0  0  0  0  0  0  0  0  0  0
    8.3812   -2.2043   -0.9135 H   0  0  0  0  0  0  0  0  0  0  0  0
   -0.6722    4.2460    1.7022 H   0  0  0  0  0  0  0  0  0  0  0  0
   -5.6068   -2.3761   -1.3265 H   0  0  0  0  0  0  0  0  0  0  0  0
   -3.6180   -3.7049   -0.4722 H   0  0  0  0  0  0  0  0  0  0  0  0
   -6.8545   -2.3389    0.5145 H   0  0  0  0  0  0  0  0  0  0  0  0
   -4.0170   -4.7543    1.6289 H   0  0  0  0  0  0  0  0  0  0  0  0
   -5.3665   -3.5499    2.0390 H   0  0  0  0  0  0  0  0  0  0  0  0
  1  7  1  0  0  0  0
  1 37  1  0  0  0  0
  2  9  1  0  0  0  0
  2 41  1  0  0  0  0
  3 18  1  0  0  0  0
  3 44  1  0  0  0  0
  4  5  1  0  0  0  0
  4  6  1  0  0  0  0
  4 21  1  0  0  0  0
  4 22  1  0  0  0  0
  5  7  1  0  0  0  0
  5 23  1  0  0  0  0
  5 24  1  0  0  0  0
  6  8  1  0  0  0  0
  6 25  1  0  0  0  0
  6 26  1  0  0  0  0
  7  9  1  0  0  0  0
  7 27  1  0  0  0  0
  8 10  1  0  0  0  0
  8 28  1  0  0  0  0
  8 29  1  0  0  0  0
  9 12  1  0  0  0  0
  9 30  1  0  0  0  0
 10 11  1  0  0  0  0
 10 31  1  0  0  0  0
 10 32  1  0  0  0  0
 11 13  1  0  0  0  0
 11 33  1  0  0  0  0
 11 34  1  0  0  0  0
 12 14  1  0  0  0  0
 12 35  1  0  0  0  0
 12 36  1  0  0  0  0
 13 38  1  0  0  0  0
 13 39  1  0  0  0  0
 13 40  1  0  0  0  0
 14 15  3  0  0  0  0
 15 16  1  0  0  0  0
 16 17  3  0  0  0  0
 17 18  1  0  0  0  0
 18 19  1  0  0  0  0
 18 42  1  0  0  0  0
 19 20  2  0  0  0  0
 19 43  1  0  0  0  0
 20 45  1  0  0  0  0
 20 46  1  0  0  0  0
M  END
> <PUBCHEM_COMPOUND_CID>
93484

> <PUBCHEM_CONFORMER_RMSD>
1

> <PUBCHEM_CONFORMER_DIVERSEORDER>
3
284
43
181
42
271
303
333
317
96
209
23
416
332
406
365
58
486
356
455
407
226
251
222
322
61
387
415
16
260
110
69
57
117
92
4
338
258
1
370
17
372
94
272
91
80
156
349
302
479
296
112
480
273
326
405
85
74
458
129
104
298
210
408
163
424
239
227
130
477
68
108
81
270
116
208
48
55
24
263
442
2
193
351
421
89
175
276
25
402
12
188
359
344
151
28
250
143
426
241
393
118
460
67
473
26
436
376
83
339
335
84
464
363
245
468
381
120
366
35
40
234
462
172
98
362
107
423
289
53
113
38
443
433
242
41
233
73
384
282
185
216
409
62
313
377
265
373
323
261
202
425
369
114
353
420
485
102
76
75
168
448
52
452
119
247
148
72
139
295
162
390
375
186
176
401
474
158
182
434
396
444
254
224
121
31
146
18
475
318
128
397
100
312
219
205
472
428
99
315
141
389
471
159
399
15
395
290
111
214
123
274
300
147
173
467
171
232
140
374
294
299
364
220
310
330
103
223
30
13
482
379
392
191
240
447
412
297
262
361
157
45
382
215
190
348
347
63
386
136
410
463
207
454
236
50
19
230
46
27
195
417
235
400
161
14
484
200
279
438
429
378
269
39
206
432
64
287
180
430
385
229
33
86
115
259
345
380
164
441
449
126
435
66
204
20
427
77
21
51
367
5
11
9
346
466
124
285
150
450
319
253
218
154
165
483
152
132
403
340
268
37
60
169
292
248
8
413
257
87
331
127
419
95
457
187
354
291
71
357
469
414
371
246
192
368
29
360
93
256
137
10
316
32
418
88
336
243
6
56
352
355
228
404
320
267
153
211
394
324
422
446
306
225
481
125
183
266
470
325
109
327
337
203
308
286
135
70
264
217
391
342
44
155
451
134
461
189
293
249
47
328
439
54
221
431
281
145
131
343
201
97
465
334
49
311
383
341
301
106
22
122
237
476
144
278
398
314
478
65
440
196
160
329
167
197
309
321
456
90
142
411
166
288
255
437
7
358
170
304
174
34
36
244
149
178
305
177
445
275
277
238
199
184
453
350
78
133
283
252
388
231
459
194
82
280
79
59
179
213
101
105
138
307
198
212

> <PUBCHEM_MMFF94_PARTIAL_CHARGES>
17
1 -0.68
12 0.2
14 -0.2
17 -0.2
18 0.62
19 -0.29
2 -0.68
20 -0.3
3 -0.68
37 0.4
41 0.4
43 0.15
44 0.4
45 0.15
46 0.15
7 0.28
9 0.28

> <PUBCHEM_EFFECTIVE_ROTOR_COUNT>
9

> <PUBCHEM_PHARMACOPHORE_FEATURES>
10
1 1 acceptor
1 1 donor
1 13 hydrophobe
1 2 acceptor
1 2 donor
1 20 hydrophobe
1 3 acceptor
1 3 donor
3 4 5 6 hydrophobe
3 8 10 11 hydrophobe

> <PUBCHEM_HEAVY_ATOM_COUNT>
20

> <PUBCHEM_ATOM_DEF_STEREO_COUNT>
0

> <PUBCHEM_ATOM_UDEF_STEREO_COUNT>
3

> <PUBCHEM_BOND_DEF_STEREO_COUNT>
0

> <PUBCHEM_BOND_UDEF_STEREO_COUNT>
0

> <PUBCHEM_ISOTOPIC_ATOM_COUNT>
0

> <PUBCHEM_COMPONENT_COUNT>
1

> <PUBCHEM_CACTVS_TAUTO_COUNT>
1

> <PUBCHEM_CONFORMER_ID>
00016D2C00000003

> <PUBCHEM_MMFF94_ENERGY>
12.4829

> <PUBCHEM_FEATURE_SELFOVERLAP>
50.77

> <PUBCHEM_SHAPE_FINGERPRINT>
117089 54 18336271235657475771
11756154 5 18409720764798970078
11809386 21 18192424182974542714
12633257 1 16629686300540355541
12760667 363 18271233933468641645
13533116 47 17907296904015514155
13631057 29 18337387133286229038
13911852 28 18341043133775640071
14251731 5 18410287047166543053
14251740 57 17829609805800473651
14251740 79 18187929413641690530
14251764 30 18409449206410648398
14420673 8 18408605868756303039
14866123 147 18339364072536473897
17859628 70 17832987518136916973
20621476 21 18413106135235831398
20621476 30 18196089937752031302
20775530 9 18335408076337655987
21054139 6 18042687205321789778
21095086 4 18334864947495574627
21196832 93 18335425677768185206
21307412 95 18335687335638679143
229767 8 18044385056716835459
23379529 103 18335699489567957342
23466295 7 18411136892292947193
270888 7 9295291642231111775
3421961 26 18196368337046841513
4107672 100 17604707747391734765
484985 159 18266740190896723073
5047190 19 18338525115242641214
5486654 36 18272370849929778913
7970288 3 18409728465216252942
8217 86 18409729560928324612
9980921 52 17625808737213666159

> <PUBCHEM_SHAPE_MULTIPOLES>
393.98
17.12
5.85
1.23
21.62
0.03
0.26
-29.6
-1.57
-3.36
1.46
-0.46
0.54
2.49

> <PUBCHEM_SHAPE_SELFOVERLAP>
744.541

> <PUBCHEM_SHAPE_VOLUME>
241.3

> <PUBCHEM_COORDINATE_TYPE>
2
5
10

$$$$
