5282743
  -OEChem-12031822493D

 48 47  0     0  0  0  0  0  0999 V2000
    6.6936    2.7260    0.8995 O   0  0  0  0  0  0  0  0  0  0  0  0
    6.2285    2.2179   -1.2758 O   0  0  0  0  0  0  0  0  0  0  0  0
   -2.3107   -0.2453    0.3093 C   0  0  0  0  0  0  0  0  0  0  0  0
   -1.2417   -1.2688   -0.0797 C   0  0  0  0  0  0  0  0  0  0  0  0
   -3.7300   -0.6628   -0.0897 C   0  0  0  0  0  0  0  0  0  0  0  0
    0.1864   -0.8083    0.2358 C   0  0  0  0  0  0  0  0  0  0  0  0
   -4.8350    0.3591    0.1937 C   0  0  0  0  0  0  0  0  0  0  0  0
    1.3053   -1.7811   -0.1534 C   0  0  0  0  0  0  0  0  0  0  0  0
   -6.2341   -0.1375   -0.1759 C   0  0  0  0  0  0  0  0  0  0  0  0
    2.6995   -1.2918    0.2459 C   0  0  0  0  0  0  0  0  0  0  0  0
   -7.2954    0.9242    0.1213 C   0  0  0  0  0  0  0  0  0  0  0  0
    3.8262   -2.2257   -0.2152 C   0  0  0  0  0  0  0  0  0  0  0  0
   -8.6901    0.4430   -0.2782 C   0  0  0  0  0  0  0  0  0  0  0  0
    5.2423   -1.7888    0.1769 C   0  0  0  0  0  0  0  0  0  0  0  0
   -9.7519    1.4820    0.0454 C   0  0  0  0  0  0  0  0  0  0  0  0
    5.5938   -0.4185   -0.3285 C   0  0  0  0  0  0  0  0  0  0  0  0
    6.0041    0.5758    0.4699 C   0  0  0  0  0  0  0  0  0  0  0  0
    6.3089    1.9004   -0.1014 C   0  0  0  0  0  0  0  0  0  0  0  0
   -2.2755   -0.0751    1.3921 H   0  0  0  0  0  0  0  0  0  0  0  0
   -2.0787    0.7143   -0.1691 H   0  0  0  0  0  0  0  0  0  0  0  0
   -1.4390   -2.2141    0.4400 H   0  0  0  0  0  0  0  0  0  0  0  0
   -1.3148   -1.4771   -1.1542 H   0  0  0  0  0  0  0  0  0  0  0  0
   -3.9741   -1.5991    0.4281 H   0  0  0  0  0  0  0  0  0  0  0  0
   -3.7400   -0.8932   -1.1628 H   0  0  0  0  0  0  0  0  0  0  0  0
    0.3665    0.1498   -0.2684 H   0  0  0  0  0  0  0  0  0  0  0  0
    0.2556   -0.6076    1.3127 H   0  0  0  0  0  0  0  0  0  0  0  0
   -4.8134    0.6179    1.2596 H   0  0  0  0  0  0  0  0  0  0  0  0
   -4.6163    1.2807   -0.3596 H   0  0  0  0  0  0  0  0  0  0  0  0
    1.2725   -1.9429   -1.2377 H   0  0  0  0  0  0  0  0  0  0  0  0
    1.1167   -2.7533    0.3179 H   0  0  0  0  0  0  0  0  0  0  0  0
   -6.2593   -0.3965   -1.2412 H   0  0  0  0  0  0  0  0  0  0  0  0
   -6.4593   -1.0523    0.3854 H   0  0  0  0  0  0  0  0  0  0  0  0
    2.8520   -0.2932   -0.1803 H   0  0  0  0  0  0  0  0  0  0  0  0
    2.7460   -1.1825    1.3362 H   0  0  0  0  0  0  0  0  0  0  0  0
   -7.0570    1.8466   -0.4223 H   0  0  0  0  0  0  0  0  0  0  0  0
   -7.2813    1.1667    1.1909 H   0  0  0  0  0  0  0  0  0  0  0  0
    3.6491   -3.2278    0.1952 H   0  0  0  0  0  0  0  0  0  0  0  0
    3.7753   -2.3268   -1.3073 H   0  0  0  0  0  0  0  0  0  0  0  0
   -8.9278   -0.4884    0.2487 H   0  0  0  0  0  0  0  0  0  0  0  0
   -8.7151    0.2239   -1.3519 H   0  0  0  0  0  0  0  0  0  0  0  0
    5.3406   -1.8367    1.2684 H   0  0  0  0  0  0  0  0  0  0  0  0
    5.9612   -2.5063   -0.2361 H   0  0  0  0  0  0  0  0  0  0  0  0
   -9.7753    1.6983    1.1183 H   0  0  0  0  0  0  0  0  0  0  0  0
  -10.7410    1.1177   -0.2493 H   0  0  0  0  0  0  0  0  0  0  0  0
   -9.5611    2.4177   -0.4899 H   0  0  0  0  0  0  0  0  0  0  0  0
    5.5043   -0.2623   -1.4008 H   0  0  0  0  0  0  0  0  0  0  0  0
    6.1043    0.4366    1.5409 H   0  0  0  0  0  0  0  0  0  0  0  0
    6.9071    3.6259    0.5721 H   0  0  0  0  0  0  0  0  0  0  0  0
  1 18  1  0  0  0  0
  1 48  1  0  0  0  0
  2 18  2  0  0  0  0
  3  4  1  0  0  0  0
  3  5  1  0  0  0  0
  3 19  1  0  0  0  0
  3 20  1  0  0  0  0
  4  6  1  0  0  0  0
  4 21  1  0  0  0  0
  4 22  1  0  0  0  0
  5  7  1  0  0  0  0
  5 23  1  0  0  0  0
  5 24  1  0  0  0  0
  6  8  1  0  0  0  0
  6 25  1  0  0  0  0
  6 26  1  0  0  0  0
  7  9  1  0  0  0  0
  7 27  1  0  0  0  0
  7 28  1  0  0  0  0
  8 10  1  0  0  0  0
  8 29  1  0  0  0  0
  8 30  1  0  0  0  0
  9 11  1  0  0  0  0
  9 31  1  0  0  0  0
  9 32  1  0  0  0  0
 10 12  1  0  0  0  0
 10 33  1  0  0  0  0
 10 34  1  0  0  0  0
 11 13  1  0  0  0  0
 11 35  1  0  0  0  0
 11 36  1  0  0  0  0
 12 14  1  0  0  0  0
 12 37  1  0  0  0  0
 12 38  1  0  0  0  0
 13 15  1  0  0  0  0
 13 39  1  0  0  0  0
 13 40  1  0  0  0  0
 14 16  1  0  0  0  0
 14 41  1  0  0  0  0
 14 42  1  0  0  0  0
 15 43  1  0  0  0  0
 15 44  1  0  0  0  0
 15 45  1  0  0  0  0
 16 17  2  0  0  0  0
 16 46  1  0  0  0  0
 17 18  1  0  0  0  0
 17 47  1  0  0  0  0
M  END
> <PUBCHEM_COMPOUND_CID>
5282743

> <PUBCHEM_CONFORMER_RMSD>
1.2

> <PUBCHEM_CONFORMER_DIVERSEORDER>
1
34
2
19
9
24
70
51
11
18
76
49
20
64
6
31
15
3
67
69
10
17
48
54
7
25
79
8
55
4
35
57
84
45
52
14
53
28
63
62
26
75
60
30
82
40
44
23
38
46
73
65
74
13
43
21
66
77
50
71
42
78
58
83
61
59
27
39
33
80
36
47
68
37
12
22
56
32
5
72
86
81
16
41
85
29

> <PUBCHEM_MMFF94_PARTIAL_CHARGES>
9
1 -0.65
14 0.14
16 -0.29
17 -0.14
18 0.71
2 -0.57
46 0.15
47 0.15
48 0.5

> <PUBCHEM_EFFECTIVE_ROTOR_COUNT>
13

> <PUBCHEM_PHARMACOPHORE_FEATURES>
4
1 1 acceptor
1 15 hydrophobe
1 2 acceptor
3 1 2 18 anion

> <PUBCHEM_HEAVY_ATOM_COUNT>
18

> <PUBCHEM_ATOM_DEF_STEREO_COUNT>
0

> <PUBCHEM_ATOM_UDEF_STEREO_COUNT>
0

> <PUBCHEM_BOND_DEF_STEREO_COUNT>
1

> <PUBCHEM_BOND_UDEF_STEREO_COUNT>
0

> <PUBCHEM_ISOTOPIC_ATOM_COUNT>
0

> <PUBCHEM_COMPONENT_COUNT>
1

> <PUBCHEM_CACTVS_TAUTO_COUNT>
1

> <PUBCHEM_CONFORMER_ID>
00509BB700000001

> <PUBCHEM_MMFF94_ENERGY>
4.4383

> <PUBCHEM_FEATURE_SELFOVERLAP>
20.353

> <PUBCHEM_SHAPE_FINGERPRINT>
10666366 153 11600013124400064355
11211813 74 18342735217630824281
11638347 137 16515682204521514346
125118 31 18334579018594956285
13530399 1 17989213608346026201
13617811 41 15626226810102010752
14142895 15 18341048610070172759
14251757 52 18408601457112331161
14251764 18 17775568616142658841
14251764 46 17846213315631801998
14428016 248 17988929938904095209
14598715 104 17531231830582603277
155225 6 17898300656738260812
15690457 1 8142080953893355673
15840311 113 18408888425489519566
16120349 18 18410570691418145301
1754908 1 16805613560196256729
195137 175 17917435303050710033
20157964 124 18410293593087228526
20281389 69 18114179701073004063
20771845 171 17131840832925531846
21150785 3 17561081397986144367
22224240 67 17749108873063098683
23524908 199 17846510232292094852
28498 318 10015864271966039867
34797466 226 18130792222104299118
4073 2 18334860532907413611
444735 82 18333735701761320229
445580 126 18341604937494961418
445580 167 18341041991546675303
465052 167 7997978973100352730
5047190 47 17988354991794376313
59521099 67 17632858600059752520
59682541 35 17822017497943437259
59682541 52 15123512545084432064
60111433 81 18055351599052090800
6438161 24 11383837043819955820
67123 10 18411699877713538487
8209 1 18131065988337470907

> <PUBCHEM_SHAPE_MULTIPOLES>
358.69
30.69
2.43
0.75
47.88
1.06
0.05
21.24
0.95
-6.44
0.04
-0.66
0.23
-0.12

> <PUBCHEM_SHAPE_SELFOVERLAP>
657.111

> <PUBCHEM_SHAPE_VOLUME>
227

> <PUBCHEM_COORDINATE_TYPE>
2
5
10

$$$$
