95997
  -OEChem-12061809413D

 25 25  0     0  0  0  0  0  0999 V2000
    1.0974    2.6300   -0.0001 O   0  0  0  0  0  0  0  0  0  0  0  0
    2.1913   -2.0167    0.0000 O   0  0  0  0  0  0  0  0  0  0  0  0
   -3.3479    0.2244    0.0006 O   0  0  0  0  0  0  0  0  0  0  0  0
   -1.0549   -0.3287    0.0003 C   0  0  0  0  0  0  0  0  0  0  0  0
    0.7050    1.3266    0.0003 C   0  0  0  0  0  0  0  0  0  0  0  0
    1.2585   -1.0252    0.0000 C   0  0  0  0  0  0  0  0  0  0  0  0
   -0.0993   -1.3447    0.0001 C   0  0  0  0  0  0  0  0  0  0  0  0
   -0.6528    1.0069    0.0004 C   0  0  0  0  0  0  0  0  0  0  0  0
    1.6608    0.3105    0.0001 C   0  0  0  0  0  0  0  0  0  0  0  0
   -2.4707   -0.6621   -0.0001 C   0  0  0  0  0  0  0  0  0  0  0  0
   -2.9169   -2.1201   -0.0008 C   0  0  0  0  0  0  0  0  0  0  0  0
    0.0680    3.6180   -0.0007 C   0  0  0  0  0  0  0  0  0  0  0  0
    3.5614   -1.6189   -0.0001 C   0  0  0  0  0  0  0  0  0  0  0  0
   -0.3746   -2.3952    0.0000 H   0  0  0  0  0  0  0  0  0  0  0  0
   -1.4283    1.7650    0.0004 H   0  0  0  0  0  0  0  0  0  0  0  0
    2.6999    0.6229    0.0000 H   0  0  0  0  0  0  0  0  0  0  0  0
   -2.5620   -2.6248    0.9014 H   0  0  0  0  0  0  0  0  0  0  0  0
   -2.5611   -2.6241   -0.9031 H   0  0  0  0  0  0  0  0  0  0  0  0
   -4.0110   -2.1592   -0.0015 H   0  0  0  0  0  0  0  0  0  0  0  0
   -0.5394    3.5678    0.9094 H   0  0  0  0  0  0  0  0  0  0  0  0
   -0.5392    3.5668   -0.9108 H   0  0  0  0  0  0  0  0  0  0  0  0
    0.5601    4.5962   -0.0012 H   0  0  0  0  0  0  0  0  0  0  0  0
    4.1633   -2.5336   -0.0002 H   0  0  0  0  0  0  0  0  0  0  0  0
    3.8203   -1.0665    0.9096 H   0  0  0  0  0  0  0  0  0  0  0  0
    3.8202   -1.0665   -0.9098 H   0  0  0  0  0  0  0  0  0  0  0  0
  1  5  1  0  0  0  0
  1 12  1  0  0  0  0
  2  6  1  0  0  0  0
  2 13  1  0  0  0  0
  3 10  2  0  0  0  0
  4  7  2  0  0  0  0
  4  8  1  0  0  0  0
  4 10  1  0  0  0  0
  5  8  2  0  0  0  0
  5  9  1  0  0  0  0
  6  7  1  0  0  0  0
  6  9  2  0  0  0  0
  7 14  1  0  0  0  0
  8 15  1  0  0  0  0
  9 16  1  0  0  0  0
 10 11  1  0  0  0  0
 11 17  1  0  0  0  0
 11 18  1  0  0  0  0
 11 19  1  0  0  0  0
 12 20  1  0  0  0  0
 12 21  1  0  0  0  0
 12 22  1  0  0  0  0
 13 23  1  0  0  0  0
 13 24  1  0  0  0  0
 13 25  1  0  0  0  0
M  END
> <PUBCHEM_COMPOUND_CID>
95997

> <PUBCHEM_CONFORMER_RMSD>
0.6

> <PUBCHEM_CONFORMER_DIVERSEORDER>
3
8
2
5
4
6
1
7

> <PUBCHEM_MMFF94_PARTIAL_CHARGES>
16
1 -0.36
10 0.42
11 0.06
12 0.28
13 0.28
14 0.15
15 0.15
16 0.15
2 -0.36
3 -0.57
4 0.09
5 0.08
6 0.08
7 -0.15
8 -0.15
9 -0.15

> <PUBCHEM_EFFECTIVE_ROTOR_COUNT>
3

> <PUBCHEM_PHARMACOPHORE_FEATURES>
4
1 1 acceptor
1 2 acceptor
1 3 acceptor
6 4 5 6 7 8 9 rings

> <PUBCHEM_HEAVY_ATOM_COUNT>
13

> <PUBCHEM_ATOM_DEF_STEREO_COUNT>
0

> <PUBCHEM_ATOM_UDEF_STEREO_COUNT>
0

> <PUBCHEM_BOND_DEF_STEREO_COUNT>
0

> <PUBCHEM_BOND_UDEF_STEREO_COUNT>
0

> <PUBCHEM_ISOTOPIC_ATOM_COUNT>
0

> <PUBCHEM_COMPONENT_COUNT>
1

> <PUBCHEM_CACTVS_TAUTO_COUNT>
2

> <PUBCHEM_CONFORMER_ID>
000176FD00000003

> <PUBCHEM_MMFF94_ENERGY>
52.2944

> <PUBCHEM_FEATURE_SELFOVERLAP>
20.297

> <PUBCHEM_SHAPE_FINGERPRINT>
1 1 17978229696560988060
10967382 1 18122625212846574437
13380535 76 17687739854047254210
14648413 74 18336546144039601827
15490181 7 17690572204764503958
15490181 8 17761764461650168450
16945 1 18122344841819046055
17841504 4 18337393845882457779
17990270 104 18337387261586764803
193761 8 17834394901409977190
20510252 161 17982164513985717658
20645477 70 18120643885000473479
20871998 184 17984978189932028318
20871998 22 18271253707345266702
21501502 16 18339365296280393179
21524375 3 17407968050965788549
22213442 358 18411417319308031254
2334 1 18410856576835496006
23402539 116 18055620734275036239
23526114 1 18410856606910875246
23552423 10 18195810893278014255
23557571 272 17985271768680616494
241688 4 18338798897009063832
2748010 2 18339913848996737412
3071541 12 18267027339113710036
3071541 158 18333167271397597308
3071541 250 18338530710830043326
458136 41 17686925103373211433
54173680 148 18121781621203511874
68521 5 18266463096775708638
7364860 26 18267867374549997930
81228 2 18050578343505515136

> <PUBCHEM_SHAPE_MULTIPOLES>
249.93
4.38
3.42
0.59
1.24
3.28
0
-3.51
0
-1.37
0
0
-0.01
0

> <PUBCHEM_SHAPE_SELFOVERLAP>
515.727

> <PUBCHEM_SHAPE_VOLUME>
145.5

> <PUBCHEM_COORDINATE_TYPE>
2
5
10

$$$$
