7
  -OEChem-12061809433D

 21 22  0     0  0  0  0  0  0999 V2000
   -1.4729    0.3280   -0.2681 N   0  0  0  0  0  0  0  0  0  0  0  0
    0.1011    1.8868   -0.0196 N   0  0  0  0  0  0  0  0  0  0  0  0
   -0.0937   -1.6706   -0.2067 N   0  0  0  0  0  0  0  0  0  0  0  0
    2.2641   -1.1117    0.0841 N   0  0  0  0  0  0  0  0  0  0  0  0
    3.0350    1.1456    0.2778 N   0  0  0  0  0  0  0  0  0  0  0  0
   -0.2881   -0.3440   -0.1666 C   0  0  0  0  0  0  0  0  0  0  0  0
   -2.7835   -0.2500   -0.4416 C   0  0  0  0  0  0  0  0  0  0  0  0
    0.6750    0.6403   -0.0125 C   0  0  0  0  0  0  0  0  0  0  0  0
   -1.1874    1.6643   -0.1749 C   0  0  0  0  0  0  0  0  0  0  0  0
   -3.4624   -0.5443    0.8851 C   0  0  0  0  0  0  0  0  0  0  0  0
    1.9936    0.2155    0.1159 C   0  0  0  0  0  0  0  0  0  0  0  0
    1.2191   -1.9598   -0.0729 C   0  0  0  0  0  0  0  0  0  0  0  0
   -3.3842    0.4528   -1.0296 H   0  0  0  0  0  0  0  0  0  0  0  0
   -2.6775   -1.1665   -1.0322 H   0  0  0  0  0  0  0  0  0  0  0  0
   -1.9543    2.4253   -0.2250 H   0  0  0  0  0  0  0  0  0  0  0  0
   -2.8764   -1.2527    1.4802 H   0  0  0  0  0  0  0  0  0  0  0  0
   -4.4532   -0.9773    0.7169 H   0  0  0  0  0  0  0  0  0  0  0  0
   -3.5844    0.3687    1.4776 H   0  0  0  0  0  0  0  0  0  0  0  0
    1.4723   -3.0144   -0.0938 H   0  0  0  0  0  0  0  0  0  0  0  0
    3.9849    0.8120    0.3694 H   0  0  0  0  0  0  0  0  0  0  0  0
    2.8357    2.1365    0.3023 H   0  0  0  0  0  0  0  0  0  0  0  0
  1  6  1  0  0  0  0
  1  7  1  0  0  0  0
  1  9  1  0  0  0  0
  2  8  1  0  0  0  0
  2  9  2  0  0  0  0
  3  6  2  0  0  0  0
  3 12  1  0  0  0  0
  4 11  1  0  0  0  0
  4 12  2  0  0  0  0
  5 11  1  0  0  0  0
  5 20  1  0  0  0  0
  5 21  1  0  0  0  0
  6  8  1  0  0  0  0
  7 10  1  0  0  0  0
  7 13  1  0  0  0  0
  7 14  1  0  0  0  0
  8 11  2  0  0  0  0
  9 15  1  0  0  0  0
 10 16  1  0  0  0  0
 10 17  1  0  0  0  0
 10 18  1  0  0  0  0
 12 19  1  0  0  0  0
M  END
> <PUBCHEM_COMPOUND_CID>
7

> <PUBCHEM_CONFORMER_RMSD>
0.4

> <PUBCHEM_CONFORMER_DIVERSEORDER>
2
4
3
1

> <PUBCHEM_MMFF94_PARTIAL_CHARGES>
15
1 0.05
11 0.41
12 0.47
15 0.15
19 0.15
2 -0.57
20 0.4
21 0.4
3 -0.57
4 -0.62
5 -0.9
6 0.11
7 0.26
8 0.23
9 0.04

> <PUBCHEM_EFFECTIVE_ROTOR_COUNT>
1

> <PUBCHEM_PHARMACOPHORE_FEATURES>
7
1 5 cation
1 5 donor
3 1 2 9 cation
3 1 3 6 cation
3 3 4 12 cation
5 1 2 6 8 9 rings
6 3 4 6 8 11 12 rings

> <PUBCHEM_HEAVY_ATOM_COUNT>
12

> <PUBCHEM_ATOM_DEF_STEREO_COUNT>
0

> <PUBCHEM_ATOM_UDEF_STEREO_COUNT>
0

> <PUBCHEM_BOND_DEF_STEREO_COUNT>
0

> <PUBCHEM_BOND_UDEF_STEREO_COUNT>
0

> <PUBCHEM_ISOTOPIC_ATOM_COUNT>
0

> <PUBCHEM_COMPONENT_COUNT>
1

> <PUBCHEM_CACTVS_TAUTO_COUNT>
3

> <PUBCHEM_CONFORMER_ID>
0000000700000002

> <PUBCHEM_MMFF94_ENERGY>
18.5631

> <PUBCHEM_FEATURE_SELFOVERLAP>
36.126

> <PUBCHEM_SHAPE_FINGERPRINT>
10219947 1 18411139164514678491
10857977 72 18335695044514053041
11471102 22 18263379116999496411
12032990 46 18410017615204309686
12423570 1 15375390081107292479
12897270 3 18337668603234554700
14325111 11 18410853252573195349
161256 15 18341622455717216494
16945 1 18339355361445836316
17844478 74 18187369822252389677
193761 8 18051129190167438012
19973954 147 18195524783820503676
20201158 50 18260547831677099051
20645477 70 18341322298139417607
21040471 1 18411411830650628092
21501502 16 18194401095721689137
2334 1 18338795619854214004
23402655 69 18268127805205512349
23552423 10 18190462649429136510
2748010 2 18267013973265000028
29004967 10 18408324380340393337
5084963 1 18058723603027473906
528886 8 18340198704033608234
53812653 166 18199464544525991088

> <PUBCHEM_SHAPE_MULTIPOLES>
222.05
4.25
1.91
0.69
1.68
0.06
0.05
0.34
0.81
-0.6
-0.06
0.3
0.04
0.25

> <PUBCHEM_SHAPE_SELFOVERLAP>
478.853

> <PUBCHEM_SHAPE_VOLUME>
121

> <PUBCHEM_COORDINATE_TYPE>
2
5
10

$$$$
