164822
  -OEChem-12061809413D

 25 25  0     1  0  0  0  0  0999 V2000
    0.7940   -0.7002    1.4092 O   0  0  0  0  0  0  0  0  0  0  0  0
    0.6524   -0.5909   -0.0109 C   0  0  2  0  0  0  0  0  0  0  0  0
    0.4501    0.8963   -0.4131 C   0  0  1  0  0  0  0  0  0  0  0  0
   -0.5823   -1.4232   -0.4103 C   0  0  0  0  0  0  0  0  0  0  0  0
   -0.8658    1.4544    0.1621 C   0  0  0  0  0  0  0  0  0  0  0  0
   -1.8832   -0.8524    0.1528 C   0  0  0  0  0  0  0  0  0  0  0  0
   -2.0680    0.6069   -0.2410 C   0  0  0  0  0  0  0  0  0  0  0  0
    1.8998   -1.2061   -0.6570 C   0  0  0  0  0  0  0  0  0  0  0  0
    1.6030    1.8153    0.0082 C   0  0  0  0  0  0  0  0  0  0  0  0
    0.3798    0.9457   -1.5089 H   0  0  0  0  0  0  0  0  0  0  0  0
   -0.4792   -2.4537   -0.0472 H   0  0  0  0  0  0  0  0  0  0  0  0
   -0.6587   -1.4727   -1.5041 H   0  0  0  0  0  0  0  0  0  0  0  0
   -1.0216    2.4806   -0.1922 H   0  0  0  0  0  0  0  0  0  0  0  0
   -0.8073    1.5051    1.2568 H   0  0  0  0  0  0  0  0  0  0  0  0
   -1.8860   -0.9416    1.2459 H   0  0  0  0  0  0  0  0  0  0  0  0
   -2.7309   -1.4421   -0.2144 H   0  0  0  0  0  0  0  0  0  0  0  0
   -2.2166    0.6772   -1.3256 H   0  0  0  0  0  0  0  0  0  0  0  0
   -2.9738    1.0042    0.2308 H   0  0  0  0  0  0  0  0  0  0  0  0
    2.8158   -0.7472   -0.2708 H   0  0  0  0  0  0  0  0  0  0  0  0
    1.9768   -2.2733   -0.4179 H   0  0  0  0  0  0  0  0  0  0  0  0
    1.8835   -1.0993   -1.7464 H   0  0  0  0  0  0  0  0  0  0  0  0
    1.7569    1.7951    1.0920 H   0  0  0  0  0  0  0  0  0  0  0  0
    2.5399    1.5244   -0.4758 H   0  0  0  0  0  0  0  0  0  0  0  0
    1.3981    2.8515   -0.2824 H   0  0  0  0  0  0  0  0  0  0  0  0
    0.9211   -1.6387    1.6298 H   0  0  0  0  0  0  0  0  0  0  0  0
  1  2  1  0  0  0  0
  1 25  1  0  0  0  0
  2  3  1  0  0  0  0
  2  4  1  0  0  0  0
  2  8  1  0  0  0  0
  3  5  1  0  0  0  0
  3  9  1  0  0  0  0
  3 10  1  0  0  0  0
  4  6  1  0  0  0  0
  4 11  1  0  0  0  0
  4 12  1  0  0  0  0
  5  7  1  0  0  0  0
  5 13  1  0  0  0  0
  5 14  1  0  0  0  0
  6  7  1  0  0  0  0
  6 15  1  0  0  0  0
  6 16  1  0  0  0  0
  7 17  1  0  0  0  0
  7 18  1  0  0  0  0
  8 19  1  0  0  0  0
  8 20  1  0  0  0  0
  8 21  1  0  0  0  0
  9 22  1  0  0  0  0
  9 23  1  0  0  0  0
  9 24  1  0  0  0  0
M  END
> <PUBCHEM_COMPOUND_CID>
164822

> <PUBCHEM_CONFORMER_RMSD>
0.4

> <PUBCHEM_CONFORMER_DIVERSEORDER>
4
7
5
8
3
2
1
6

> <PUBCHEM_MMFF94_PARTIAL_CHARGES>
3
1 -0.68
2 0.28
25 0.4

> <PUBCHEM_EFFECTIVE_ROTOR_COUNT>
1.2

> <PUBCHEM_PHARMACOPHORE_FEATURES>
3
1 1 acceptor
1 1 donor
6 2 3 4 5 6 7 rings

> <PUBCHEM_HEAVY_ATOM_COUNT>
9

> <PUBCHEM_ATOM_DEF_STEREO_COUNT>
0

> <PUBCHEM_ATOM_UDEF_STEREO_COUNT>
2

> <PUBCHEM_BOND_DEF_STEREO_COUNT>
0

> <PUBCHEM_BOND_UDEF_STEREO_COUNT>
0

> <PUBCHEM_ISOTOPIC_ATOM_COUNT>
0

> <PUBCHEM_COMPONENT_COUNT>
1

> <PUBCHEM_CACTVS_TAUTO_COUNT>
1

> <PUBCHEM_CONFORMER_ID>
000283D600000004

> <PUBCHEM_MMFF94_ENERGY>
15.0842

> <PUBCHEM_FEATURE_SELFOVERLAP>
15.223

> <PUBCHEM_SHAPE_FINGERPRINT>
12423570 1 12311221053300122242
16714656 1 17979362958073424510
16945 1 18411144610258922774
18185500 45 18046063765894315067
21040471 1 18194683889306152725
23552423 10 18334299802712728846
241688 4 17331962716505193643
24536 1 18270950289448634261
2748010 2 18410294739574075173
29004967 10 18199475372033139934
5084963 1 17916862418167863655

> <PUBCHEM_SHAPE_MULTIPOLES>
179.35
2.46
1.92
0.87
0.4
0.37
-0.2
0.01
0.21
-0.48
0.12
-0.17
-0.16
0.09

> <PUBCHEM_SHAPE_SELFOVERLAP>
347.5

> <PUBCHEM_SHAPE_VOLUME>
109.2

> <PUBCHEM_COORDINATE_TYPE>
2
5
10

$$$$
