71413934
  -OEChem-12061809413D

 26 26  0     0  0  0  0  0  0999 V2000
    0.2756   -2.2461   -0.5203 Cl  0  0  0  0  0  0  0  0  0  0  0  0
   -2.7932   -2.1062    0.3245 Cl  0  0  0  0  0  0  0  0  0  0  0  0
   -3.8443    0.6869    0.6170 N   0  0  0  0  0  0  0  0  0  0  0  0
    2.5660    0.1179    0.2903 C   0  0  0  0  0  0  0  0  0  0  0  0
    1.6550    0.4390   -0.8966 C   0  0  0  0  0  0  0  0  0  0  0  0
    4.0384    0.1412   -0.1196 C   0  0  0  0  0  0  0  0  0  0  0  0
    0.2021    0.4535   -0.4961 C   0  0  0  0  0  0  0  0  0  0  0  0
   -0.5235   -0.7212   -0.2981 C   0  0  0  0  0  0  0  0  0  0  0  0
   -0.4160    1.6923   -0.3247 C   0  0  0  0  0  0  0  0  0  0  0  0
    4.9510   -0.1375    1.0642 C   0  0  0  0  0  0  0  0  0  0  0  0
   -1.8669   -0.6573    0.0714 C   0  0  0  0  0  0  0  0  0  0  0  0
   -1.7594    1.7562    0.0449 C   0  0  0  0  0  0  0  0  0  0  0  0
   -2.4849    0.5813    0.2429 C   0  0  0  0  0  0  0  0  0  0  0  0
    2.3317   -0.8576    0.7281 H   0  0  0  0  0  0  0  0  0  0  0  0
    2.4012    0.8576    1.0848 H   0  0  0  0  0  0  0  0  0  0  0  0
    1.8160   -0.2687   -1.7190 H   0  0  0  0  0  0  0  0  0  0  0  0
    1.9339    1.4174   -1.3105 H   0  0  0  0  0  0  0  0  0  0  0  0
    4.2190   -0.6088   -0.8984 H   0  0  0  0  0  0  0  0  0  0  0  0
    4.2924    1.1192   -0.5447 H   0  0  0  0  0  0  0  0  0  0  0  0
    0.1344    2.6178   -0.4719 H   0  0  0  0  0  0  0  0  0  0  0  0
    4.8176    0.6147    1.8482 H   0  0  0  0  0  0  0  0  0  0  0  0
    5.9987   -0.1166    0.7482 H   0  0  0  0  0  0  0  0  0  0  0  0
    4.7456   -1.1229    1.4944 H   0  0  0  0  0  0  0  0  0  0  0  0
   -2.2277    2.7286    0.1756 H   0  0  0  0  0  0  0  0  0  0  0  0
   -4.3895   -0.1517    0.7660 H   0  0  0  0  0  0  0  0  0  0  0  0
   -4.2704    1.5963    0.7355 H   0  0  0  0  0  0  0  0  0  0  0  0
  1  8  1  0  0  0  0
  2 11  1  0  0  0  0
  3 13  1  0  0  0  0
  3 25  1  0  0  0  0
  3 26  1  0  0  0  0
  4  5  1  0  0  0  0
  4  6  1  0  0  0  0
  4 14  1  0  0  0  0
  4 15  1  0  0  0  0
  5  7  1  0  0  0  0
  5 16  1  0  0  0  0
  5 17  1  0  0  0  0
  6 10  1  0  0  0  0
  6 18  1  0  0  0  0
  6 19  1  0  0  0  0
  7  8  2  0  0  0  0
  7  9  1  0  0  0  0
  8 11  1  0  0  0  0
  9 12  2  0  0  0  0
  9 20  1  0  0  0  0
 10 21  1  0  0  0  0
 10 22  1  0  0  0  0
 10 23  1  0  0  0  0
 11 13  2  0  0  0  0
 12 13  1  0  0  0  0
 12 24  1  0  0  0  0
M  END
> <PUBCHEM_COMPOUND_CID>
71413934

> <PUBCHEM_CONFORMER_RMSD>
0.6

> <PUBCHEM_CONFORMER_DIVERSEORDER>
1
9
8
6
5
2
3
4
7

> <PUBCHEM_MMFF94_PARTIAL_CHARGES>
14
1 -0.18
11 0.18
12 -0.15
13 0.1
2 -0.18
20 0.15
24 0.15
25 0.4
26 0.4
3 -0.9
5 0.14
7 -0.14
8 0.18
9 -0.15

> <PUBCHEM_EFFECTIVE_ROTOR_COUNT>
3

> <PUBCHEM_PHARMACOPHORE_FEATURES>
4
1 10 hydrophobe
1 3 cation
1 3 donor
6 7 8 9 11 12 13 rings

> <PUBCHEM_HEAVY_ATOM_COUNT>
13

> <PUBCHEM_ATOM_DEF_STEREO_COUNT>
0

> <PUBCHEM_ATOM_UDEF_STEREO_COUNT>
0

> <PUBCHEM_BOND_DEF_STEREO_COUNT>
0

> <PUBCHEM_BOND_UDEF_STEREO_COUNT>
0

> <PUBCHEM_ISOTOPIC_ATOM_COUNT>
0

> <PUBCHEM_COMPONENT_COUNT>
1

> <PUBCHEM_CACTVS_TAUTO_COUNT>
1

> <PUBCHEM_CONFORMER_ID>
0441B0AE00000001

> <PUBCHEM_MMFF94_ENERGY>
35.6259

> <PUBCHEM_FEATURE_SELFOVERLAP>
20.297

> <PUBCHEM_SHAPE_FINGERPRINT>
11132069 177 18411705369736805526
12119455 92 17131829841877263404
12251169 10 18334859398544728520
12382932 28 18411989048184869323
13024252 1 14634867526826963693
13140716 1 18267594670440195257
13214271 11 18272367589753708463
13380535 76 18411141303566946367
14420673 8 18049718526273470418
15219456 202 18198064681434587486
15375462 189 17894343380854738712
15536298 74 18271248192870937774
15775835 57 18343302544044669634
16945 1 18338252487349407989
17804303 29 18412831308773133500
17846911 113 18343302539491375736
19422 9 18040999578988628214
20510252 161 18273219715871529488
20645464 45 17917992780487750116
20645477 70 13912597231135692648
20871998 184 18343304802965488854
21501502 16 18194410110990191709
21650355 55 18410006667274637000
2334 1 18051424160364058901
23402539 116 18412255139089866445
23419403 2 15765515292535068959
23463225 33 18333454239832502238
23559900 14 18200047174636579236
257057 1 17408791572237590663
2748010 2 18195536024203734549
43471831 8 18335419032820879378
53812653 166 18201441358842180985
5706482 22 18341889684250664775
58807428 26 18337116669994138843
7364860 26 17984990280138723294
77492 1 17749118811263467604
90316 7 18187080629125093908

> <PUBCHEM_SHAPE_MULTIPOLES>
266.29
7.04
2.03
0.87
7.88
0.73
-0.02
0.17
-2.73
-1.71
0.14
0.41
0.03
-0.1

> <PUBCHEM_SHAPE_SELFOVERLAP>
522.643

> <PUBCHEM_SHAPE_VOLUME>
160.5

> <PUBCHEM_COORDINATE_TYPE>
2
5
10

$$$$
