6918328
  -OEChem-12061809383D

 94 97  0     1  0  0  0  0  0999 V2000
   -6.1265    0.1171    1.5173 O   0  0  0  0  0  0  0  0  0  0  0  0
   -2.8052   -2.6291    1.4665 O   0  0  0  0  0  0  0  0  0  0  0  0
   -2.9976    2.1117    2.2719 O   0  0  0  0  0  0  0  0  0  0  0  0
    0.2454   -0.7707    2.4474 O   0  0  0  0  0  0  0  0  0  0  0  0
    4.3011    3.8585    1.2125 O   0  0  0  0  0  0  0  0  0  0  0  0
    7.4553   -2.2178    1.2818 O   0  0  0  0  0  0  0  0  0  0  0  0
   -4.9891   -1.4265    0.2263 N   0  0  0  0  0  0  0  0  0  0  0  0
   -3.1062    1.0827    0.1959 N   0  0  0  0  0  0  0  0  0  0  0  0
   -1.4305   -2.0118   -0.2937 N   0  0  0  0  0  0  0  0  0  0  0  0
   -0.5046    0.3522    0.5569 N   0  0  0  0  0  0  0  0  0  0  0  0
    3.1632    3.3422    0.6088 N   0  0  0  0  0  0  0  0  0  0  0  0
   -3.8342   -1.8445   -0.5966 C   0  0  2  0  0  0  0  0  0  0  0  0
   -4.1586   -2.9794   -1.5745 C   0  0  0  0  0  0  0  0  0  0  0  0
   -5.8126   -2.5108    0.7906 C   0  0  0  0  0  0  0  0  0  0  0  0
   -4.9241   -4.1206   -0.9177 C   0  0  0  0  0  0  0  0  0  0  0  0
   -6.1696   -3.5808   -0.2322 C   0  0  0  0  0  0  0  0  0  0  0  0
   -4.5512    1.0913    0.0478 C   0  0  2  0  0  0  0  0  0  0  0  0
   -5.2504   -0.1236    0.6726 C   0  0  0  0  0  0  0  0  0  0  0  0
   -4.9876    1.3232   -1.3951 C   0  0  2  0  0  0  0  0  0  0  0  0
   -2.6632   -2.2147    0.3184 C   0  0  0  0  0  0  0  0  0  0  0  0
   -0.1834   -2.0611    0.4604 C   0  0  1  0  0  0  0  0  0  0  0  0
   -4.2933    2.5410   -2.0334 C   0  0  0  0  0  0  0  0  0  0  0  0
   -0.9150    1.5969    1.1827 C   0  0  2  0  0  0  0  0  0  0  0  0
    1.0221   -2.1785   -0.4562 C   0  0  0  0  0  0  0  0  0  0  0  0
   -6.5075    1.5047   -1.4574 C   0  0  0  0  0  0  0  0  0  0  0  0
   -2.4418    1.5822    1.3093 C   0  0  0  0  0  0  0  0  0  0  0  0
   -0.1397   -0.7740    1.2797 C   0  0  0  0  0  0  0  0  0  0  0  0
   -0.4603    2.7934    0.3621 C   0  0  0  0  0  0  0  0  0  0  0  0
    2.3284   -2.2242    0.3370 C   0  0  0  0  0  0  0  0  0  0  0  0
   -4.5690    3.8483   -1.3046 C   0  0  0  0  0  0  0  0  0  0  0  0
    3.5418   -2.3084   -0.5913 C   0  0  0  0  0  0  0  0  0  0  0  0
    1.0307    2.8618    0.2232 C   0  0  0  0  0  0  0  0  0  0  0  0
    4.8506   -2.3079    0.2046 C   0  0  0  0  0  0  0  0  0  0  0  0
    1.8134    2.2698   -0.8073 C   0  0  0  0  0  0  0  0  0  0  0  0
    1.8887    3.5140    1.0784 C   0  0  0  0  0  0  0  0  0  0  0  0
    3.1474    2.5863   -0.5418 C   0  0  0  0  0  0  0  0  0  0  0  0
    6.0817   -2.3567   -0.6989 C   0  0  0  0  0  0  0  0  0  0  0  0
    1.5141    1.4928   -1.9439 C   0  0  0  0  0  0  0  0  0  0  0  0
    4.2013    2.1629   -1.3593 C   0  0  0  0  0  0  0  0  0  0  0  0
    7.4019   -2.2842    0.0547 C   0  0  0  0  0  0  0  0  0  0  0  0
    2.5579    1.0622   -2.7709 C   0  0  0  0  0  0  0  0  0  0  0  0
    3.8801    1.3932   -2.4811 C   0  0  0  0  0  0  0  0  0  0  0  0
    8.6500   -2.2595   -0.8121 C   0  0  0  0  0  0  0  0  0  0  0  0
    4.8167    2.9149    2.1579 C   0  0  0  0  0  0  0  0  0  0  0  0
    9.9295   -2.2185    0.0033 C   0  0  0  0  0  0  0  0  0  0  0  0
   -3.5062   -1.0015   -1.2026 H   0  0  0  0  0  0  0  0  0  0  0  0
   -4.7731   -2.5736   -2.3889 H   0  0  0  0  0  0  0  0  0  0  0  0
   -3.2441   -3.3715   -2.0345 H   0  0  0  0  0  0  0  0  0  0  0  0
   -6.7402   -2.1062    1.2095 H   0  0  0  0  0  0  0  0  0  0  0  0
   -5.2607   -2.9514    1.6276 H   0  0  0  0  0  0  0  0  0  0  0  0
   -5.2078   -4.8602   -1.6748 H   0  0  0  0  0  0  0  0  0  0  0  0
   -4.2863   -4.6343   -0.1888 H   0  0  0  0  0  0  0  0  0  0  0  0
   -6.7085   -4.3982    0.2594 H   0  0  0  0  0  0  0  0  0  0  0  0
   -6.8446   -3.1556   -0.9855 H   0  0  0  0  0  0  0  0  0  0  0  0
   -4.9001    1.9412    0.6508 H   0  0  0  0  0  0  0  0  0  0  0  0
   -4.7426    0.4603   -2.0231 H   0  0  0  0  0  0  0  0  0  0  0  0
   -0.2370   -2.9088    1.1535 H   0  0  0  0  0  0  0  0  0  0  0  0
   -2.5545    0.7052   -0.5662 H   0  0  0  0  0  0  0  0  0  0  0  0
   -4.6320    2.6432   -3.0722 H   0  0  0  0  0  0  0  0  0  0  0  0
   -3.2106    2.3791   -2.0875 H   0  0  0  0  0  0  0  0  0  0  0  0
   -1.3987   -1.6930   -1.2579 H   0  0  0  0  0  0  0  0  0  0  0  0
   -0.4983    1.6330    2.1964 H   0  0  0  0  0  0  0  0  0  0  0  0
    1.0515   -1.3409   -1.1624 H   0  0  0  0  0  0  0  0  0  0  0  0
    0.9305   -3.0878   -1.0638 H   0  0  0  0  0  0  0  0  0  0  0  0
   -6.8690    2.2505   -0.7419 H   0  0  0  0  0  0  0  0  0  0  0  0
   -7.0234    0.5631   -1.2398 H   0  0  0  0  0  0  0  0  0  0  0  0
   -6.8246    1.8136   -2.4596 H   0  0  0  0  0  0  0  0  0  0  0  0
   -0.9140    2.7733   -0.6377 H   0  0  0  0  0  0  0  0  0  0  0  0
   -0.8225    3.7187    0.8297 H   0  0  0  0  0  0  0  0  0  0  0  0
    2.3206   -3.0866    1.0145 H   0  0  0  0  0  0  0  0  0  0  0  0
    2.4302   -1.3253    0.9555 H   0  0  0  0  0  0  0  0  0  0  0  0
   -0.6839    0.2419   -0.4361 H   0  0  0  0  0  0  0  0  0  0  0  0
   -4.1776    3.8436   -0.2839 H   0  0  0  0  0  0  0  0  0  0  0  0
   -5.6352    4.0876   -1.2721 H   0  0  0  0  0  0  0  0  0  0  0  0
   -4.0717    4.6695   -1.8325 H   0  0  0  0  0  0  0  0  0  0  0  0
    3.5364   -1.4604   -1.2842 H   0  0  0  0  0  0  0  0  0  0  0  0
    3.4808   -3.2206   -1.1968 H   0  0  0  0  0  0  0  0  0  0  0  0
    4.8957   -1.4067    0.8294 H   0  0  0  0  0  0  0  0  0  0  0  0
    4.8663   -3.1642    0.8902 H   0  0  0  0  0  0  0  0  0  0  0  0
    1.7027    4.0839    1.9787 H   0  0  0  0  0  0  0  0  0  0  0  0
    6.0545   -1.5129   -1.3981 H   0  0  0  0  0  0  0  0  0  0  0  0
    6.0774   -3.2861   -1.2790 H   0  0  0  0  0  0  0  0  0  0  0  0
    0.4898    1.2303   -2.1915 H   0  0  0  0  0  0  0  0  0  0  0  0
    5.2318    2.4180   -1.1367 H   0  0  0  0  0  0  0  0  0  0  0  0
    2.3329    0.4624   -3.6487 H   0  0  0  0  0  0  0  0  0  0  0  0
    4.6755    1.0466   -3.1361 H   0  0  0  0  0  0  0  0  0  0  0  0
    8.5992   -1.3775   -1.4590 H   0  0  0  0  0  0  0  0  0  0  0  0
    8.6465   -3.1562   -1.4405 H   0  0  0  0  0  0  0  0  0  0  0  0
    4.0852    2.7217    2.9492 H   0  0  0  0  0  0  0  0  0  0  0  0
    5.0983    1.9800    1.6628 H   0  0  0  0  0  0  0  0  0  0  0  0
    5.7118    3.3486    2.6125 H   0  0  0  0  0  0  0  0  0  0  0  0
   10.0063   -3.0925    0.6587 H   0  0  0  0  0  0  0  0  0  0  0  0
    9.9665   -1.3232    0.6327 H   0  0  0  0  0  0  0  0  0  0  0  0
   10.8022   -2.2082   -0.6569 H   0  0  0  0  0  0  0  0  0  0  0  0
  1 18  2  0  0  0  0
  2 20  2  0  0  0  0
  3 26  2  0  0  0  0
  4 27  2  0  0  0  0
  5 11  1  0  0  0  0
  5 44  1  0  0  0  0
  6 40  2  0  0  0  0
  7 12  1  0  0  0  0
  7 14  1  0  0  0  0
  7 18  1  0  0  0  0
  8 17  1  0  0  0  0
  8 26  1  0  0  0  0
  8 58  1  0  0  0  0
  9 20  1  0  0  0  0
  9 21  1  0  0  0  0
  9 61  1  0  0  0  0
 10 23  1  0  0  0  0
 10 27  1  0  0  0  0
 10 72  1  0  0  0  0
 11 35  1  0  0  0  0
 11 36  1  0  0  0  0
 12 13  1  0  0  0  0
 12 20  1  0  0  0  0
 12 46  1  0  0  0  0
 13 15  1  0  0  0  0
 13 47  1  0  0  0  0
 13 48  1  0  0  0  0
 14 16  1  0  0  0  0
 14 49  1  0  0  0  0
 14 50  1  0  0  0  0
 15 16  1  0  0  0  0
 15 51  1  0  0  0  0
 15 52  1  0  0  0  0
 16 53  1  0  0  0  0
 16 54  1  0  0  0  0
 17 18  1  0  0  0  0
 17 19  1  0  0  0  0
 17 55  1  0  0  0  0
 19 22  1  0  0  0  0
 19 25  1  0  0  0  0
 19 56  1  0  0  0  0
 21 24  1  0  0  0  0
 21 27  1  0  0  0  0
 21 57  1  0  0  0  0
 22 30  1  0  0  0  0
 22 59  1  0  0  0  0
 22 60  1  0  0  0  0
 23 26  1  0  0  0  0
 23 28  1  0  0  0  0
 23 62  1  0  0  0  0
 24 29  1  0  0  0  0
 24 63  1  0  0  0  0
 24 64  1  0  0  0  0
 25 65  1  0  0  0  0
 25 66  1  0  0  0  0
 25 67  1  0  0  0  0
 28 32  1  0  0  0  0
 28 68  1  0  0  0  0
 28 69  1  0  0  0  0
 29 31  1  0  0  0  0
 29 70  1  0  0  0  0
 29 71  1  0  0  0  0
 30 73  1  0  0  0  0
 30 74  1  0  0  0  0
 30 75  1  0  0  0  0
 31 33  1  0  0  0  0
 31 76  1  0  0  0  0
 31 77  1  0  0  0  0
 32 34  1  0  0  0  0
 32 35  2  0  0  0  0
 33 37  1  0  0  0  0
 33 78  1  0  0  0  0
 33 79  1  0  0  0  0
 34 36  1  0  0  0  0
 34 38  2  0  0  0  0
 35 80  1  0  0  0  0
 36 39  2  0  0  0  0
 37 40  1  0  0  0  0
 37 81  1  0  0  0  0
 37 82  1  0  0  0  0
 38 41  1  0  0  0  0
 38 83  1  0  0  0  0
 39 42  1  0  0  0  0
 39 84  1  0  0  0  0
 40 43  1  0  0  0  0
 41 42  2  0  0  0  0
 41 85  1  0  0  0  0
 42 86  1  0  0  0  0
 43 45  1  0  0  0  0
 43 87  1  0  0  0  0
 43 88  1  0  0  0  0
 44 89  1  0  0  0  0
 44 90  1  0  0  0  0
 44 91  1  0  0  0  0
 45 92  1  0  0  0  0
 45 93  1  0  0  0  0
 45 94  1  0  0  0  0
M  END
> <PUBCHEM_COMPOUND_CID>
6918328

> <PUBCHEM_CONFORMER_RMSD>
1.4

> <PUBCHEM_CONFORMER_DIVERSEORDER>
1
8
7
23
19
5
26
18
15
21
31
25
30
10
11
16
28
27
9
24
14
13
6
17
4
20
22
32
29
2
12
3

> <PUBCHEM_MMFF94_PARTIAL_CHARGES>
40
1 -0.57
10 -0.73
11 0.44
12 0.36
14 0.3
17 0.36
18 0.57
2 -0.57
20 0.57
21 0.36
23 0.36
26 0.57
27 0.57
28 0.18
3 -0.57
32 -0.18
35 -0.3
36 -0.15
37 0.06
38 -0.15
39 -0.15
4 -0.57
40 0.45
41 -0.15
42 -0.15
43 0.06
44 0.28
5 -0.42
58 0.37
6 -0.57
61 0.37
7 -0.66
72 0.37
8 -0.73
80 0.15
83 0.15
84 0.15
85 0.15
86 0.15
9 -0.73

> <PUBCHEM_EFFECTIVE_ROTOR_COUNT>
14

> <PUBCHEM_PHARMACOPHORE_FEATURES>
15
1 1 acceptor
1 10 donor
1 2 acceptor
1 25 hydrophobe
1 3 acceptor
1 30 hydrophobe
1 4 acceptor
1 45 hydrophobe
1 6 acceptor
1 8 donor
1 9 donor
5 11 32 34 35 36 rings
5 24 29 31 33 37 hydrophobe
6 34 36 38 39 41 42 rings
6 7 12 13 14 15 16 rings

> <PUBCHEM_HEAVY_ATOM_COUNT>
45

> <PUBCHEM_ATOM_DEF_STEREO_COUNT>
5

> <PUBCHEM_ATOM_UDEF_STEREO_COUNT>
0

> <PUBCHEM_BOND_DEF_STEREO_COUNT>
0

> <PUBCHEM_BOND_UDEF_STEREO_COUNT>
0

> <PUBCHEM_ISOTOPIC_ATOM_COUNT>
0

> <PUBCHEM_COMPONENT_COUNT>
1

> <PUBCHEM_CACTVS_TAUTO_COUNT>
24

> <PUBCHEM_CONFORMER_ID>
006990B800000001

> <PUBCHEM_MMFF94_ENERGY>
93.4292

> <PUBCHEM_FEATURE_SELFOVERLAP>
76.229

> <PUBCHEM_SHAPE_FINGERPRINT>
10190108 129 17976559509436633395
10674148 151 8574417713981831326
12355185 293 18339092484427189054
12422481 6 18042942402812910080
13811026 1 18412537713831256312
14068700 675 18413672418210585242
15406563 228 18114752529541417004
18336668 15 18187937127497776308
20609170 92 18262784272941013381
22899556 105 18123199158028096430
23559900 14 18341043026185595523
513532 50 17987247810145052590
59520647 208 18272367616589441280
77296 10 18412260666248545868

> <PUBCHEM_SHAPE_MULTIPOLES>
865.96
19.96
5.97
2.06
28.31
0.6
-0.3
-16.32
-2.34
0.12
-0.08
0.12
1.38
1.15

> <PUBCHEM_SHAPE_SELFOVERLAP>
1793.869

> <PUBCHEM_SHAPE_VOLUME>
490

> <PUBCHEM_COORDINATE_TYPE>
2
5
10

$$$$
