3083151
  -OEChem-12061809383D

 73 78  0     1  0  0  0  0  0999 V2000
    3.4852   -1.4459   -2.1512 O   0  0  0  0  0  0  0  0  0  0  0  0
    6.1726    1.5842    1.1133 O   0  0  0  0  0  0  0  0  0  0  0  0
   -4.1104    0.3235    0.7393 N   0  0  2  0  0  0  0  0  0  0  0  0
    1.7856   -0.1434    0.8076 C   0  0  1  0  0  0  0  0  0  0  0  0
    1.4797   -1.4965    0.1531 C   0  0  2  0  0  0  0  0  0  0  0  0
    2.7887    0.7092   -0.0129 C   0  0  2  0  0  0  0  0  0  0  0  0
    0.4216   -2.0632    1.1113 C   0  0  1  0  0  0  0  0  0  0  0  0
   -0.4633   -0.8356    1.4693 C   0  0  1  0  0  0  0  0  0  0  0  0
    0.3843    0.4043    1.0703 C   0  0  0  0  0  0  0  0  0  0  0  0
    4.0840   -0.1638   -0.1595 C   0  0  1  0  0  0  0  0  0  0  0  0
    2.7479   -2.3320   -0.0131 C   0  0  0  0  0  0  0  0  0  0  0  0
    3.8367   -1.5589   -0.7773 C   0  0  1  0  0  0  0  0  0  0  0  0
    3.1693    1.9883    0.7799 C   0  0  0  0  0  0  0  0  0  0  0  0
   -0.3627   -3.2533    0.5730 C   0  0  0  0  0  0  0  0  0  0  0  0
   -1.8394   -0.7983    0.8290 C   0  0  0  0  0  0  0  0  0  0  0  0
    5.2199    0.6036   -0.8611 C   0  0  0  0  0  0  0  0  0  0  0  0
    2.1847    1.1467   -1.3710 C   0  0  0  0  0  0  0  0  0  0  0  0
   -2.2443   -1.7077   -0.0798 C   0  0  0  0  0  0  0  0  0  0  0  0
   -1.3720   -2.8622   -0.5008 C   0  0  0  0  0  0  0  0  0  0  0  0
    4.3166    2.7739    0.1312 C   0  0  0  0  0  0  0  0  0  0  0  0
    5.5512    1.9093   -0.1309 C   0  0  1  0  0  0  0  0  0  0  0  0
   -2.7307    0.3552    1.2493 C   0  0  0  0  0  0  0  0  0  0  0  0
   -3.6037   -1.6010   -0.7443 C   0  0  2  0  0  0  0  0  0  0  0  0
   -4.2080   -0.1760   -0.6412 C   0  0  2  0  0  0  0  0  0  0  0  0
   -3.6059    0.8118   -1.6582 C   0  0  0  0  0  0  0  0  0  0  0  0
   -4.7819    1.6256    0.8767 C   0  0  0  0  0  0  0  0  0  0  0  0
   -4.5644   -2.6297   -0.1235 C   0  0  0  0  0  0  0  0  0  0  0  0
   -4.2932    2.6991   -0.1182 C   0  0  1  0  0  0  0  0  0  0  0  0
   -4.3050    2.1683   -1.5575 C   0  0  0  0  0  0  0  0  0  0  0  0
   -5.1433    3.9643   -0.0030 C   0  0  0  0  0  0  0  0  0  0  0  0
    2.2433   -0.3333    1.7921 H   0  0  0  0  0  0  0  0  0  0  0  0
    1.0256   -1.3522   -0.8340 H   0  0  0  0  0  0  0  0  0  0  0  0
    0.9332   -2.3923    2.0277 H   0  0  0  0  0  0  0  0  0  0  0  0
   -0.6052   -0.8396    2.5587 H   0  0  0  0  0  0  0  0  0  0  0  0
   -0.0241    0.8825    0.1738 H   0  0  0  0  0  0  0  0  0  0  0  0
    0.3896    1.1525    1.8702 H   0  0  0  0  0  0  0  0  0  0  0  0
    4.4417   -0.3686    0.8623 H   0  0  0  0  0  0  0  0  0  0  0  0
    3.1371   -2.6135    0.9732 H   0  0  0  0  0  0  0  0  0  0  0  0
    2.5054   -3.2592   -0.5446 H   0  0  0  0  0  0  0  0  0  0  0  0
    4.7678   -2.1369   -0.7372 H   0  0  0  0  0  0  0  0  0  0  0  0
    3.4661    1.7158    1.8014 H   0  0  0  0  0  0  0  0  0  0  0  0
    2.2990    2.6484    0.8817 H   0  0  0  0  0  0  0  0  0  0  0  0
   -0.9048   -3.7176    1.4080 H   0  0  0  0  0  0  0  0  0  0  0  0
    0.3149   -4.0210    0.1831 H   0  0  0  0  0  0  0  0  0  0  0  0
    6.1143   -0.0320   -0.8788 H   0  0  0  0  0  0  0  0  0  0  0  0
    4.9619    0.8164   -1.9037 H   0  0  0  0  0  0  0  0  0  0  0  0
    2.9236    1.6133   -2.0278 H   0  0  0  0  0  0  0  0  0  0  0  0
    1.7464    0.3195   -1.9325 H   0  0  0  0  0  0  0  0  0  0  0  0
    1.3904    1.8876   -1.2268 H   0  0  0  0  0  0  0  0  0  0  0  0
   -1.9830   -3.7448   -0.7195 H   0  0  0  0  0  0  0  0  0  0  0  0
   -0.8616   -2.5999   -1.4348 H   0  0  0  0  0  0  0  0  0  0  0  0
    3.9752    3.2180   -0.8105 H   0  0  0  0  0  0  0  0  0  0  0  0
    4.5803    3.6065    0.7947 H   0  0  0  0  0  0  0  0  0  0  0  0
    6.2840    2.4756   -0.7164 H   0  0  0  0  0  0  0  0  0  0  0  0
   -2.7852    0.3635    2.3451 H   0  0  0  0  0  0  0  0  0  0  0  0
   -2.2264    1.2802    0.9517 H   0  0  0  0  0  0  0  0  0  0  0  0
   -3.4921   -1.8438   -1.8094 H   0  0  0  0  0  0  0  0  0  0  0  0
   -5.2757   -0.2670   -0.8896 H   0  0  0  0  0  0  0  0  0  0  0  0
    3.3533   -2.3451   -2.4969 H   0  0  0  0  0  0  0  0  0  0  0  0
   -3.7317    0.4216   -2.6752 H   0  0  0  0  0  0  0  0  0  0  0  0
   -2.5282    0.9408   -1.5032 H   0  0  0  0  0  0  0  0  0  0  0  0
   -4.6725    1.9919    1.9056 H   0  0  0  0  0  0  0  0  0  0  0  0
   -5.8599    1.4667    0.7381 H   0  0  0  0  0  0  0  0  0  0  0  0
   -5.5517   -2.5693   -0.5943 H   0  0  0  0  0  0  0  0  0  0  0  0
   -4.2037   -3.6536   -0.2651 H   0  0  0  0  0  0  0  0  0  0  0  0
   -4.6941   -2.4692    0.9526 H   0  0  0  0  0  0  0  0  0  0  0  0
   -3.2630    2.9797    0.1327 H   0  0  0  0  0  0  0  0  0  0  0  0
   -3.8163    2.8846   -2.2283 H   0  0  0  0  0  0  0  0  0  0  0  0
   -5.3403    2.0632   -1.9071 H   0  0  0  0  0  0  0  0  0  0  0  0
    6.4100    2.4200    1.5500 H   0  0  0  0  0  0  0  0  0  0  0  0
   -4.7793    4.7394   -0.6857 H   0  0  0  0  0  0  0  0  0  0  0  0
   -6.1921    3.7640   -0.2466 H   0  0  0  0  0  0  0  0  0  0  0  0
   -5.1027    4.3671    1.0144 H   0  0  0  0  0  0  0  0  0  0  0  0
  1 12  1  0  0  0  0
  1 59  1  0  0  0  0
  2 21  1  0  0  0  0
  2 70  1  0  0  0  0
  3 22  1  0  0  0  0
  3 24  1  0  0  0  0
  3 26  1  0  0  0  0
  4  5  1  0  0  0  0
  4  6  1  0  0  0  0
  4  9  1  0  0  0  0
  4 31  1  0  0  0  0
  5  7  1  0  0  0  0
  5 11  1  0  0  0  0
  5 32  1  0  0  0  0
  6 10  1  0  0  0  0
  6 13  1  0  0  0  0
  6 17  1  0  0  0  0
  7  8  1  0  0  0  0
  7 14  1  0  0  0  0
  7 33  1  0  0  0  0
  8  9  1  0  0  0  0
  8 15  1  0  0  0  0
  8 34  1  0  0  0  0
  9 35  1  0  0  0  0
  9 36  1  0  0  0  0
 10 12  1  0  0  0  0
 10 16  1  0  0  0  0
 10 37  1  0  0  0  0
 11 12  1  0  0  0  0
 11 38  1  0  0  0  0
 11 39  1  0  0  0  0
 12 40  1  0  0  0  0
 13 20  1  0  0  0  0
 13 41  1  0  0  0  0
 13 42  1  0  0  0  0
 14 19  1  0  0  0  0
 14 43  1  0  0  0  0
 14 44  1  0  0  0  0
 15 18  2  0  0  0  0
 15 22  1  0  0  0  0
 16 21  1  0  0  0  0
 16 45  1  0  0  0  0
 16 46  1  0  0  0  0
 17 47  1  0  0  0  0
 17 48  1  0  0  0  0
 17 49  1  0  0  0  0
 18 19  1  0  0  0  0
 18 23  1  0  0  0  0
 19 50  1  0  0  0  0
 19 51  1  0  0  0  0
 20 21  1  0  0  0  0
 20 52  1  0  0  0  0
 20 53  1  0  0  0  0
 21 54  1  0  0  0  0
 22 55  1  0  0  0  0
 22 56  1  0  0  0  0
 23 24  1  0  0  0  0
 23 27  1  0  0  0  0
 23 57  1  0  0  0  0
 24 25  1  0  0  0  0
 24 58  1  0  0  0  0
 25 29  1  0  0  0  0
 25 60  1  0  0  0  0
 25 61  1  0  0  0  0
 26 28  1  0  0  0  0
 26 62  1  0  0  0  0
 26 63  1  0  0  0  0
 27 64  1  0  0  0  0
 27 65  1  0  0  0  0
 27 66  1  0  0  0  0
 28 29  1  0  0  0  0
 28 30  1  0  0  0  0
 28 67  1  0  0  0  0
 29 68  1  0  0  0  0
 29 69  1  0  0  0  0
 30 71  1  0  0  0  0
 30 72  1  0  0  0  0
 30 73  1  0  0  0  0
M  END
> <PUBCHEM_COMPOUND_CID>
3083151

> <PUBCHEM_CONFORMER_RMSD>
0.8

> <PUBCHEM_CONFORMER_DIVERSEORDER>
1
2

> <PUBCHEM_MMFF94_PARTIAL_CHARGES>
15
1 -0.68
12 0.28
15 -0.28
18 -0.28
19 0.14
2 -0.68
21 0.28
22 0.41
23 0.14
24 0.27
26 0.27
3 -0.81
59 0.4
70 0.4
8 0.14

> <PUBCHEM_EFFECTIVE_ROTOR_COUNT>
3

> <PUBCHEM_PHARMACOPHORE_FEATURES>
11
1 1 acceptor
1 1 donor
1 2 acceptor
1 2 donor
1 3 cation
5 4 5 7 8 9 rings
6 3 15 18 22 23 24 rings
6 3 24 25 26 28 29 rings
6 4 5 6 10 11 12 rings
6 6 10 13 16 20 21 rings
6 7 8 14 15 18 19 rings

> <PUBCHEM_HEAVY_ATOM_COUNT>
30

> <PUBCHEM_ATOM_DEF_STEREO_COUNT>
11

> <PUBCHEM_ATOM_UDEF_STEREO_COUNT>
0

> <PUBCHEM_BOND_DEF_STEREO_COUNT>
0

> <PUBCHEM_BOND_UDEF_STEREO_COUNT>
0

> <PUBCHEM_ISOTOPIC_ATOM_COUNT>
0

> <PUBCHEM_COMPONENT_COUNT>
1

> <PUBCHEM_CACTVS_TAUTO_COUNT>
1

> <PUBCHEM_CONFORMER_ID>
002F0B8F00000001

> <PUBCHEM_MMFF94_ENERGY>
80.213

> <PUBCHEM_FEATURE_SELFOVERLAP>
56.135

> <PUBCHEM_SHAPE_FINGERPRINT>
10498660 4 18260536819412451367
10670039 82 18335977670352315629
10675989 125 18124598587390203296
11621639 179 17828207588671529228
11720765 8 17769097843973942846
11796584 16 12822719493797393853
12422481 6 17313930927952834820
12788726 201 18189603021022341027
12892183 10 11025809716117453895
13103583 49 7925639963466105047
13544653 18 10087630507816853203
13944108 23 17546728153890931245
14114206 34 16988564542415568897
14251764 38 18264491852658133300
14251764 75 18268434534231577705
14713325 29 18261679293630160291
14790565 3 17980204085049461161
14848178 5 10735578186306918173
14848178 96 18408880707206694609
15082195 135 18121758562410141629
15183329 4 18410573989979278834
15463212 79 18261666064841023827
15537594 2 13182757964635829077
16994733 274 16300044859897556023
18608769 82 18268432524155130787
20511986 3 18272920636341129562
20715895 44 18339921511614078048
21033648 144 18342181063368913703
21033648 29 18113626659345448945
21033650 10 18261973932533497926
21279426 13 18341899571987813502
21864079 5 18334007272917433635
22122407 14 17905338329898501393
221357 26 18272366533708932399
22393880 68 18413111649636183878
22907989 373 18269815615704601047
22950370 63 9439137459180853082
23559900 14 18059857217149806546
23569914 152 17340708305502951684
23569943 247 15867121029362114250
283562 15 18262512710907557787
2838139 119 18410853278759750032
32027 91 17986403187504916446
3459 39 18337372912327986592
350125 39 18411983585646066355
376196 1 18410856564404885714
392239 28 15068638084141962893
4098825 35 18131636673194208959
4280585 95 17485394200412769422
46194498 28 18058458762501435542
469060 322 17899993908675869291
497634 4 17845946233643985827
508706 21 18186808018691258966
5104073 3 18113334180688809499
5252454 2 18042123159539239359
5283173 99 18341050800186950016
5486654 36 11023826219295718999
6328613 192 17896323704929966548
633830 44 18340764836937708007
7288768 16 17894634725850938145
7808743 9 18409444778684527169
7970288 3 9511167552106224537

> <PUBCHEM_SHAPE_MULTIPOLES>
600.67
12.99
4
1.41
3.75
0.73
-0.29
10.22
-1.88
-2.99
-0.08
-0.1
0.06
0.73

> <PUBCHEM_SHAPE_SELFOVERLAP>
1288.668

> <PUBCHEM_SHAPE_VOLUME>
328.6

> <PUBCHEM_COORDINATE_TYPE>
2
5
10

$$$$
