5319081
  -OEChem-12181801553D

 39 40  0     0  0  0  0  0  0999 V2000
   -2.1064    1.7229   -1.4845 O   0  0  0  0  0  0  0  0  0  0  0  0
   -5.6132   -1.3589   -0.5268 O   0  0  0  0  0  0  0  0  0  0  0  0
    1.8784    1.9025    1.4263 O   0  0  0  0  0  0  0  0  0  0  0  0
    6.5913   -1.6210   -0.9209 O   0  0  0  0  0  0  0  0  0  0  0  0
   -0.7072    1.0331    0.9089 C   0  0  0  0  0  0  0  0  0  0  0  0
    0.4865    0.2529    0.3533 C   0  0  0  0  0  0  0  0  0  0  0  0
   -2.0175    0.4025    0.5137 C   0  0  0  0  0  0  0  0  0  0  0  0
   -2.6488    0.7810   -0.6628 C   0  0  0  0  0  0  0  0  0  0  0  0
    1.8477    0.8593    0.7418 C   0  0  0  0  0  0  0  0  0  0  0  0
   -2.5745   -0.5582    1.3467 C   0  0  0  0  0  0  0  0  0  0  0  0
    3.0789    0.2155    0.3115 C   0  0  0  0  0  0  0  0  0  0  0  0
   -3.8611    0.1871   -1.0138 C   0  0  0  0  0  0  0  0  0  0  0  0
   -3.7869   -1.1520    0.9957 C   0  0  0  0  0  0  0  0  0  0  0  0
   -4.4302   -0.7793   -0.1844 C   0  0  0  0  0  0  0  0  0  0  0  0
    3.0253   -0.9502   -0.4526 C   0  0  0  0  0  0  0  0  0  0  0  0
    4.3128    0.7637    0.6619 C   0  0  0  0  0  0  0  0  0  0  0  0
    4.2056   -1.5678   -0.8661 C   0  0  0  0  0  0  0  0  0  0  0  0
    5.4931    0.1461    0.2481 C   0  0  0  0  0  0  0  0  0  0  0  0
    5.4395   -1.0196   -0.5158 C   0  0  0  0  0  0  0  0  0  0  0  0
   -2.4750    3.0799   -1.2467 C   0  0  0  0  0  0  0  0  0  0  0  0
   -6.1383   -2.3396    0.3667 C   0  0  0  0  0  0  0  0  0  0  0  0
   -0.6414    1.0767    2.0047 H   0  0  0  0  0  0  0  0  0  0  0  0
   -0.6563    2.0791    0.5882 H   0  0  0  0  0  0  0  0  0  0  0  0
    0.4246    0.2304   -0.7413 H   0  0  0  0  0  0  0  0  0  0  0  0
    0.4492   -0.7748    0.7344 H   0  0  0  0  0  0  0  0  0  0  0  0
   -2.0805   -0.8572    2.2670 H   0  0  0  0  0  0  0  0  0  0  0  0
   -4.3631    0.4760   -1.9338 H   0  0  0  0  0  0  0  0  0  0  0  0
   -4.1722   -1.8956    1.6849 H   0  0  0  0  0  0  0  0  0  0  0  0
    2.0893   -1.4118   -0.7504 H   0  0  0  0  0  0  0  0  0  0  0  0
    4.3813    1.6711    1.2561 H   0  0  0  0  0  0  0  0  0  0  0  0
    4.1509   -2.4753   -1.4616 H   0  0  0  0  0  0  0  0  0  0  0  0
    6.4513    0.5779    0.5236 H   0  0  0  0  0  0  0  0  0  0  0  0
   -1.7580    3.7254   -1.7612 H   0  0  0  0  0  0  0  0  0  0  0  0
   -2.4661    3.3248   -0.1798 H   0  0  0  0  0  0  0  0  0  0  0  0
   -3.4719    3.2668   -1.6576 H   0  0  0  0  0  0  0  0  0  0  0  0
   -6.3737   -1.9075    1.3452 H   0  0  0  0  0  0  0  0  0  0  0  0
   -5.4760   -3.2084    0.4449 H   0  0  0  0  0  0  0  0  0  0  0  0
   -7.0817   -2.6944   -0.0612 H   0  0  0  0  0  0  0  0  0  0  0  0
    6.3676   -2.4133   -1.4389 H   0  0  0  0  0  0  0  0  0  0  0  0
  1  8  1  0  0  0  0
  1 20  1  0  0  0  0
  2 14  1  0  0  0  0
  2 21  1  0  0  0  0
  3  9  2  0  0  0  0
  4 19  1  0  0  0  0
  4 39  1  0  0  0  0
  5  6  1  0  0  0  0
  5  7  1  0  0  0  0
  5 22  1  0  0  0  0
  5 23  1  0  0  0  0
  6  9  1  0  0  0  0
  6 24  1  0  0  0  0
  6 25  1  0  0  0  0
  7  8  2  0  0  0  0
  7 10  1  0  0  0  0
  8 12  1  0  0  0  0
  9 11  1  0  0  0  0
 10 13  2  0  0  0  0
 10 26  1  0  0  0  0
 11 15  2  0  0  0  0
 11 16  1  0  0  0  0
 12 14  2  0  0  0  0
 12 27  1  0  0  0  0
 13 14  1  0  0  0  0
 13 28  1  0  0  0  0
 15 17  1  0  0  0  0
 15 29  1  0  0  0  0
 16 18  2  0  0  0  0
 16 30  1  0  0  0  0
 17 19  2  0  0  0  0
 17 31  1  0  0  0  0
 18 19  1  0  0  0  0
 18 32  1  0  0  0  0
 20 33  1  0  0  0  0
 20 34  1  0  0  0  0
 20 35  1  0  0  0  0
 21 36  1  0  0  0  0
 21 37  1  0  0  0  0
 21 38  1  0  0  0  0
M  END
> <PUBCHEM_COMPOUND_CID>
5319081

> <PUBCHEM_CONFORMER_RMSD>
0.8

> <PUBCHEM_CONFORMER_DIVERSEORDER>
1
21
77
43
68
74
67
63
72
57
2
6
70
13
50
61
3
75
65
62
73
71
79
76
18
31
30
14
59
46
44
33
4
32
52
5
47
42
7
36
22
78
10
38
48
20
64
45
37
39
9
69
35
58
60
15
51
56
26
41
66
17
16
28
19
8
25
49
40
12
27
34
11
55
53
29
54
24
23

> <PUBCHEM_MMFF94_PARTIAL_CHARGES>
29
1 -0.36
10 -0.15
11 0.09
12 -0.15
13 -0.15
14 0.08
15 -0.15
16 -0.15
17 -0.15
18 -0.15
19 0.08
2 -0.36
20 0.28
21 0.28
26 0.15
27 0.15
28 0.15
29 0.15
3 -0.57
30 0.15
31 0.15
32 0.15
39 0.45
4 -0.53
5 0.14
6 0.06
7 -0.14
8 0.08
9 0.42

> <PUBCHEM_EFFECTIVE_ROTOR_COUNT>
6

> <PUBCHEM_PHARMACOPHORE_FEATURES>
6
1 1 acceptor
1 2 acceptor
1 3 acceptor
1 4 donor
6 11 15 16 17 18 19 rings
6 7 8 10 12 13 14 rings

> <PUBCHEM_HEAVY_ATOM_COUNT>
21

> <PUBCHEM_ATOM_DEF_STEREO_COUNT>
0

> <PUBCHEM_ATOM_UDEF_STEREO_COUNT>
0

> <PUBCHEM_BOND_DEF_STEREO_COUNT>
0

> <PUBCHEM_BOND_UDEF_STEREO_COUNT>
0

> <PUBCHEM_ISOTOPIC_ATOM_COUNT>
0

> <PUBCHEM_COMPONENT_COUNT>
1

> <PUBCHEM_CACTVS_TAUTO_COUNT>
7

> <PUBCHEM_CONFORMER_ID>
005129A900000001

> <PUBCHEM_MMFF94_ENERGY>
76.2255

> <PUBCHEM_FEATURE_SELFOVERLAP>
30.447

> <PUBCHEM_SHAPE_FINGERPRINT>
10366900 7 18040151824999997507
11089746 13 13984660373843994662
12236239 1 16487256590347862809
12596602 18 15985103033089614058
12616971 3 15841545276271476200
13402501 40 18341615940220822847
13533116 47 17703508916726756745
13668630 136 18202569458405730270
13673619 4 18341618130885602921
13685833 64 18271811254414277131
13955234 65 17702374251330227256
14350574 20 18343021111853997642
14849402 71 15122925410624153706
15238133 3 11311779509474123034
15348495 7 10519691286133150382
15961568 22 17604429738575470916
17844677 252 18343305859907530888
17870717 6 18186524284799231459
1813 80 17346331405167205744
19489759 90 17676205745544459502
19784866 240 18343308093363812659
200 152 17918273155768138937
20645477 70 18202847630757954558
20871999 31 17895198770636007888
21033650 10 17677337078807107936
21150785 3 17967820470469321814
21267235 1 17846788390920939134
21307412 95 18261389023056792751
21618674 25 9295299347798287377
21623969 137 17846502534666376990
221357 26 18409727365588132480
22393880 68 18263359197020577642
2297311 6 18113901567876086325
23402539 116 17895185611114558981
23402655 69 13334745652352010666
23503953 91 12463565209857814064
23557571 272 18187639228192170113
23559900 14 17823134682402001373
2838139 119 12035712224852161295
300161 21 13840269212823765306
314194 84 17632855326466380246
3268164 11 17676200252012457901
34797466 226 17968103066068584236
351380 3 17203610380691917150
46194498 28 18335698390631784540
465052 167 17846503664089522046
5104073 3 17561082463080038450
5281201 14 18408887330653043484
56616090 284 17894350016726942979
59755656 215 18187077365255923595
59755656 520 18123748661235374781
7970288 3 17917996057595919718

> <PUBCHEM_SHAPE_MULTIPOLES>
408.69
15.13
2.25
1.27
6.99
0.88
0.01
-10.3
-2.76
-2.09
-0.63
-0.27
0.34
2.27

> <PUBCHEM_SHAPE_SELFOVERLAP>
866.457

> <PUBCHEM_SHAPE_VOLUME>
229

> <PUBCHEM_COORDINATE_TYPE>
2
5
10

$$$$
