5322034
  -OEChem-12071808413D

 30 29  0     0  0  0  0  0  0999 V2000
   -1.2920    0.3208    0.4942 O   0  0  0  0  0  0  0  0  0  0  0  0
    0.7493    1.1397   -0.3482 O   0  0  0  0  0  0  0  0  0  0  0  0
    0.5718   -1.1345    0.3571 O   0  0  0  0  0  0  0  0  0  0  0  0
   -1.1333    0.7805   -2.3085 O   0  0  0  0  0  0  0  0  0  0  0  0
   -0.1072   -0.0227   -0.2582 C   0  0  0  0  0  0  0  0  0  0  0  0
   -0.5059   -0.3496   -1.7117 C   0  0  0  0  0  0  0  0  0  0  0  0
   -2.2868   -0.6911    0.5664 C   0  0  0  0  0  0  0  0  0  0  0  0
    1.2256    1.5986    0.9108 C   0  0  0  0  0  0  0  0  0  0  0  0
    1.7739   -1.5532   -0.2732 C   0  0  0  0  0  0  0  0  0  0  0  0
   -3.4539   -0.1779    1.3828 C   0  0  0  0  0  0  0  0  0  0  0  0
    2.1057    2.8110    0.6927 C   0  0  0  0  0  0  0  0  0  0  0  0
    2.3529   -2.7215    0.4958 C   0  0  0  0  0  0  0  0  0  0  0  0
   -1.1530   -1.2260   -1.7993 H   0  0  0  0  0  0  0  0  0  0  0  0
    0.3808   -0.5441   -2.3224 H   0  0  0  0  0  0  0  0  0  0  0  0
   -2.6673   -0.9429   -0.4263 H   0  0  0  0  0  0  0  0  0  0  0  0
   -1.8744   -1.5910    1.0340 H   0  0  0  0  0  0  0  0  0  0  0  0
    0.3815    1.8775    1.5505 H   0  0  0  0  0  0  0  0  0  0  0  0
    1.8035    0.8172    1.4140 H   0  0  0  0  0  0  0  0  0  0  0  0
    1.5770   -1.8954   -1.2926 H   0  0  0  0  0  0  0  0  0  0  0  0
    2.5006   -0.7358   -0.3055 H   0  0  0  0  0  0  0  0  0  0  0  0
   -4.2408   -0.9336    1.4595 H   0  0  0  0  0  0  0  0  0  0  0  0
   -3.1273    0.0951    2.3917 H   0  0  0  0  0  0  0  0  0  0  0  0
   -3.8746    0.7257    0.9293 H   0  0  0  0  0  0  0  0  0  0  0  0
    2.4858    3.1947    1.6436 H   0  0  0  0  0  0  0  0  0  0  0  0
    2.9547    2.5593    0.0486 H   0  0  0  0  0  0  0  0  0  0  0  0
    1.5480    3.6068    0.1881 H   0  0  0  0  0  0  0  0  0  0  0  0
    3.2781   -3.0757    0.0324 H   0  0  0  0  0  0  0  0  0  0  0  0
    2.5647   -2.4333    1.5308 H   0  0  0  0  0  0  0  0  0  0  0  0
    1.6379   -3.5500    0.5362 H   0  0  0  0  0  0  0  0  0  0  0  0
   -1.3564    0.5338   -3.2223 H   0  0  0  0  0  0  0  0  0  0  0  0
  1  5  1  0  0  0  0
  1  7  1  0  0  0  0
  2  5  1  0  0  0  0
  2  8  1  0  0  0  0
  3  5  1  0  0  0  0
  3  9  1  0  0  0  0
  4  6  1  0  0  0  0
  4 30  1  0  0  0  0
  5  6  1  0  0  0  0
  6 13  1  0  0  0  0
  6 14  1  0  0  0  0
  7 10  1  0  0  0  0
  7 15  1  0  0  0  0
  7 16  1  0  0  0  0
  8 11  1  0  0  0  0
  8 17  1  0  0  0  0
  8 18  1  0  0  0  0
  9 12  1  0  0  0  0
  9 19  1  0  0  0  0
  9 20  1  0  0  0  0
 10 21  1  0  0  0  0
 10 22  1  0  0  0  0
 10 23  1  0  0  0  0
 11 24  1  0  0  0  0
 11 25  1  0  0  0  0
 11 26  1  0  0  0  0
 12 27  1  0  0  0  0
 12 28  1  0  0  0  0
 12 29  1  0  0  0  0
M  END
> <PUBCHEM_COMPOUND_CID>
5322034

> <PUBCHEM_CONFORMER_RMSD>
0.8

> <PUBCHEM_CONFORMER_DIVERSEORDER>
1
2
4
5
3

> <PUBCHEM_MMFF94_PARTIAL_CHARGES>
10
1 -0.56
2 -0.56
3 -0.56
30 0.4
4 -0.68
5 0.84
6 0.28
7 0.28
8 0.28
9 0.28

> <PUBCHEM_EFFECTIVE_ROTOR_COUNT>
7

> <PUBCHEM_PHARMACOPHORE_FEATURES>
5
1 1 acceptor
1 2 acceptor
1 3 acceptor
1 4 acceptor
1 4 donor

> <PUBCHEM_HEAVY_ATOM_COUNT>
12

> <PUBCHEM_ATOM_DEF_STEREO_COUNT>
0

> <PUBCHEM_ATOM_UDEF_STEREO_COUNT>
0

> <PUBCHEM_BOND_DEF_STEREO_COUNT>
0

> <PUBCHEM_BOND_UDEF_STEREO_COUNT>
0

> <PUBCHEM_ISOTOPIC_ATOM_COUNT>
0

> <PUBCHEM_COMPONENT_COUNT>
1

> <PUBCHEM_CACTVS_TAUTO_COUNT>
1

> <PUBCHEM_CONFORMER_ID>
0051353200000001

> <PUBCHEM_MMFF94_ENERGY>
22.7393

> <PUBCHEM_FEATURE_SELFOVERLAP>
25.491

> <PUBCHEM_SHAPE_FINGERPRINT>
100427 49 18198324175185382496
12423570 1 15476783633369723253
13024252 1 17396979059485420638
13898156 1 17059472158279029069
14817 1 10438987990940975860
16945 1 18411423933451808379
17841504 4 18339368465607360531
20379382 53 18410855485903253323
20711978 78 18410847772163101795
20711985 344 16081648864396708095
21061003 4 18337667495376072738
21524375 3 17629211677838852065
21930827 45 16952231141540612301
23419403 2 18187915132437529348
298252 57 16413533326367431984
305870 269 18270403935064488553
3250762 1 18188472602181680981
430814 3 17559404753937723593
528862 383 18343584070413236362
68250623 7 17415296184274517918
68419 9 16844146021646197375
76951 1 17763795096317511532
81228 2 17332226616692078504

> <PUBCHEM_SHAPE_MULTIPOLES>
223.48
3.79
2.73
1.59
2.81
0.24
1.1
-0.44
-2.09
-3.77
-0.92
0.9
0.2
0.21

> <PUBCHEM_SHAPE_SELFOVERLAP>
407.102

> <PUBCHEM_SHAPE_VOLUME>
141.9

> <PUBCHEM_COORDINATE_TYPE>
2
5
10

$$$$
