10387952
  -OEChem-12071808383D

 74 79  0     1  0  0  0  0  0999 V2000
   -3.4134    1.3643    1.9303 O   0  0  0  0  0  0  0  0  0  0  0  0
    4.7188   -1.6893   -2.2307 O   0  0  0  0  0  0  0  0  0  0  0  0
    7.0761   -0.9058    2.2110 O   0  0  0  0  0  0  0  0  0  0  0  0
   -3.7824   -0.9585    0.1943 N   0  0  1  0  0  0  0  0  0  0  0  0
   -0.0190   -0.2907   -0.2499 C   0  0  2  0  0  0  0  0  0  0  0  0
    0.2814    0.2632   -1.6516 C   0  0  2  0  0  0  0  0  0  0  0  0
    2.1805    0.8511   -0.2726 C   0  0  1  0  0  0  0  0  0  0  0  0
    1.8256    0.3071   -1.6792 C   0  0  1  0  0  0  0  0  0  0  0  0
   -1.4492   -0.0553    0.2722 C   0  0  1  0  0  0  0  0  0  0  0  0
    1.0943    0.2696    0.6573 C   0  0  0  0  0  0  0  0  0  0  0  0
    3.6697    0.6515    0.1434 C   0  0  2  0  0  0  0  0  0  0  0  0
   -1.9685    1.3704   -0.0089 C   0  0  1  0  0  0  0  0  0  0  0  0
   -0.3261    1.6493   -1.9077 C   0  0  0  0  0  0  0  0  0  0  0  0
    4.0813   -0.8267   -0.0592 C   0  0  1  0  0  0  0  0  0  0  0  0
   -1.7885    1.7411   -1.4926 C   0  0  0  0  0  0  0  0  0  0  0  0
   -3.4334    1.5054    0.4979 C   0  0  1  0  0  0  0  0  0  0  0  0
    2.4173   -1.0767   -1.9921 C   0  0  0  0  0  0  0  0  0  0  0  0
   -2.4129   -1.1024   -0.3213 C   0  0  0  0  0  0  0  0  0  0  0  0
   -4.3510    0.3823   -0.0817 C   0  0  2  0  0  0  0  0  0  0  0  0
    3.8930    1.0384    1.6303 C   0  0  0  0  0  0  0  0  0  0  0  0
    3.8422   -1.2180   -1.5093 C   0  0  0  0  0  0  0  0  0  0  0  0
    4.5322    1.5983   -0.7410 C   0  0  0  0  0  0  0  0  0  0  0  0
    5.5102   -1.1185    0.4079 C   0  0  0  0  0  0  0  0  0  0  0  0
    5.3078    0.7339    2.1281 C   0  0  0  0  0  0  0  0  0  0  0  0
    5.7069   -0.7179    1.8690 C   0  0  2  0  0  0  0  0  0  0  0  0
   -5.7879    0.4730    0.4881 C   0  0  0  0  0  0  0  0  0  0  0  0
   -4.6241   -2.0337   -0.3592 C   0  0  0  0  0  0  0  0  0  0  0  0
   -3.9952    2.9081    0.2150 C   0  0  0  0  0  0  0  0  0  0  0  0
   -6.0446   -2.0282    0.2201 C   0  0  2  0  0  0  0  0  0  0  0  0
   -6.6847   -0.6587   -0.0070 C   0  0  0  0  0  0  0  0  0  0  0  0
   -6.0565   -2.4266    1.6992 C   0  0  0  0  0  0  0  0  0  0  0  0
    0.1390   -1.3779   -0.2735 H   0  0  0  0  0  0  0  0  0  0  0  0
   -0.1058   -0.4229   -2.4154 H   0  0  0  0  0  0  0  0  0  0  0  0
    2.0077    1.9369   -0.2816 H   0  0  0  0  0  0  0  0  0  0  0  0
    2.1777    1.0074   -2.4470 H   0  0  0  0  0  0  0  0  0  0  0  0
   -1.4318   -0.2151    1.3599 H   0  0  0  0  0  0  0  0  0  0  0  0
    0.7231    1.0527    1.3279 H   0  0  0  0  0  0  0  0  0  0  0  0
    1.4728   -0.5386    1.2912 H   0  0  0  0  0  0  0  0  0  0  0  0
   -1.3507    2.0609    0.5836 H   0  0  0  0  0  0  0  0  0  0  0  0
   -0.2349    1.8889   -2.9744 H   0  0  0  0  0  0  0  0  0  0  0  0
    0.2260    2.4333   -1.3783 H   0  0  0  0  0  0  0  0  0  0  0  0
    3.4211   -1.4756    0.5330 H   0  0  0  0  0  0  0  0  0  0  0  0
   -2.1199    2.7697   -1.6714 H   0  0  0  0  0  0  0  0  0  0  0  0
   -2.3937    1.1013   -2.1432 H   0  0  0  0  0  0  0  0  0  0  0  0
    2.3913   -1.2443   -3.0751 H   0  0  0  0  0  0  0  0  0  0  0  0
    1.8490   -1.8915   -1.5325 H   0  0  0  0  0  0  0  0  0  0  0  0
   -2.4054   -1.0605   -1.4177 H   0  0  0  0  0  0  0  0  0  0  0  0
   -2.0393   -2.0971   -0.0443 H   0  0  0  0  0  0  0  0  0  0  0  0
   -4.4210    0.5187   -1.1701 H   0  0  0  0  0  0  0  0  0  0  0  0
    3.1957    0.4911    2.2750 H   0  0  0  0  0  0  0  0  0  0  0  0
    3.6780    2.1037    1.7807 H   0  0  0  0  0  0  0  0  0  0  0  0
    5.6015    1.5191   -0.5278 H   0  0  0  0  0  0  0  0  0  0  0  0
    4.4079    1.3953   -1.8094 H   0  0  0  0  0  0  0  0  0  0  0  0
    4.2496    2.6447   -0.5758 H   0  0  0  0  0  0  0  0  0  0  0  0
    5.7296   -2.1886    0.2939 H   0  0  0  0  0  0  0  0  0  0  0  0
    6.2510   -0.6165   -0.2270 H   0  0  0  0  0  0  0  0  0  0  0  0
    6.0359    1.4116    1.6666 H   0  0  0  0  0  0  0  0  0  0  0  0
    5.3722    0.9406    3.2038 H   0  0  0  0  0  0  0  0  0  0  0  0
    5.1107   -1.3741    2.5147 H   0  0  0  0  0  0  0  0  0  0  0  0
   -6.2532    1.4197    0.1921 H   0  0  0  0  0  0  0  0  0  0  0  0
   -5.7791    0.4552    1.5834 H   0  0  0  0  0  0  0  0  0  0  0  0
   -4.1693   -3.0093   -0.1445 H   0  0  0  0  0  0  0  0  0  0  0  0
   -4.6805   -1.9454   -1.4529 H   0  0  0  0  0  0  0  0  0  0  0  0
   -3.2759    3.6776    0.5195 H   0  0  0  0  0  0  0  0  0  0  0  0
   -4.2265    3.0507   -0.8451 H   0  0  0  0  0  0  0  0  0  0  0  0
   -4.9041    3.1127    0.7910 H   0  0  0  0  0  0  0  0  0  0  0  0
   -6.6391   -2.7752   -0.3216 H   0  0  0  0  0  0  0  0  0  0  0  0
   -7.6633   -0.6024    0.4837 H   0  0  0  0  0  0  0  0  0  0  0  0
   -6.8648   -0.5220   -1.0812 H   0  0  0  0  0  0  0  0  0  0  0  0
   -4.2494    1.6979    2.2951 H   0  0  0  0  0  0  0  0  0  0  0  0
   -5.4596   -1.7513    2.3196 H   0  0  0  0  0  0  0  0  0  0  0  0
   -7.0797   -2.4266    2.0897 H   0  0  0  0  0  0  0  0  0  0  0  0
   -5.6532   -3.4371    1.8258 H   0  0  0  0  0  0  0  0  0  0  0  0
    7.2913   -1.8420    2.0599 H   0  0  0  0  0  0  0  0  0  0  0  0
  1 16  1  0  0  0  0
  1 70  1  0  0  0  0
  2 21  2  0  0  0  0
  3 25  1  0  0  0  0
  3 74  1  0  0  0  0
  4 18  1  0  0  0  0
  4 19  1  0  0  0  0
  4 27  1  0  0  0  0
  5  6  1  0  0  0  0
  5  9  1  0  0  0  0
  5 10  1  0  0  0  0
  5 32  1  0  0  0  0
  6  8  1  0  0  0  0
  6 13  1  0  0  0  0
  6 33  1  0  0  0  0
  7  8  1  0  0  0  0
  7 10  1  0  0  0  0
  7 11  1  0  0  0  0
  7 34  1  0  0  0  0
  8 17  1  0  0  0  0
  8 35  1  0  0  0  0
  9 12  1  0  0  0  0
  9 18  1  0  0  0  0
  9 36  1  0  0  0  0
 10 37  1  0  0  0  0
 10 38  1  0  0  0  0
 11 14  1  0  0  0  0
 11 20  1  0  0  0  0
 11 22  1  0  0  0  0
 12 15  1  0  0  0  0
 12 16  1  0  0  0  0
 12 39  1  0  0  0  0
 13 15  1  0  0  0  0
 13 40  1  0  0  0  0
 13 41  1  0  0  0  0
 14 21  1  0  0  0  0
 14 23  1  0  0  0  0
 14 42  1  0  0  0  0
 15 43  1  0  0  0  0
 15 44  1  0  0  0  0
 16 19  1  0  0  0  0
 16 28  1  0  0  0  0
 17 21  1  0  0  0  0
 17 45  1  0  0  0  0
 17 46  1  0  0  0  0
 18 47  1  0  0  0  0
 18 48  1  0  0  0  0
 19 26  1  0  0  0  0
 19 49  1  0  0  0  0
 20 24  1  0  0  0  0
 20 50  1  0  0  0  0
 20 51  1  0  0  0  0
 22 52  1  0  0  0  0
 22 53  1  0  0  0  0
 22 54  1  0  0  0  0
 23 25  1  0  0  0  0
 23 55  1  0  0  0  0
 23 56  1  0  0  0  0
 24 25  1  0  0  0  0
 24 57  1  0  0  0  0
 24 58  1  0  0  0  0
 25 59  1  0  0  0  0
 26 30  1  0  0  0  0
 26 60  1  0  0  0  0
 26 61  1  0  0  0  0
 27 29  1  0  0  0  0
 27 62  1  0  0  0  0
 27 63  1  0  0  0  0
 28 64  1  0  0  0  0
 28 65  1  0  0  0  0
 28 66  1  0  0  0  0
 29 30  1  0  0  0  0
 29 31  1  0  0  0  0
 29 67  1  0  0  0  0
 30 68  1  0  0  0  0
 30 69  1  0  0  0  0
 31 71  1  0  0  0  0
 31 72  1  0  0  0  0
 31 73  1  0  0  0  0
M  END
> <PUBCHEM_COMPOUND_CID>
10387952

> <PUBCHEM_CONFORMER_RMSD>
0.8

> <PUBCHEM_CONFORMER_DIVERSEORDER>
1
4
3
2

> <PUBCHEM_MMFF94_PARTIAL_CHARGES>
14
1 -0.68
14 0.06
16 0.28
17 0.06
18 0.27
19 0.27
2 -0.57
21 0.45
25 0.28
27 0.27
3 -0.68
4 -0.81
70 0.4
74 0.4

> <PUBCHEM_EFFECTIVE_ROTOR_COUNT>
2.8

> <PUBCHEM_PHARMACOPHORE_FEATURES>
12
1 1 acceptor
1 1 donor
1 2 acceptor
1 3 acceptor
1 3 donor
1 4 cation
5 5 6 7 8 10 rings
6 11 14 20 23 24 25 rings
6 4 19 26 27 29 30 rings
6 4 9 12 16 18 19 rings
6 5 6 9 12 13 15 rings
6 7 8 11 14 17 21 rings

> <PUBCHEM_HEAVY_ATOM_COUNT>
31

> <PUBCHEM_ATOM_DEF_STEREO_COUNT>
11

> <PUBCHEM_ATOM_UDEF_STEREO_COUNT>
1

> <PUBCHEM_BOND_DEF_STEREO_COUNT>
0

> <PUBCHEM_BOND_UDEF_STEREO_COUNT>
0

> <PUBCHEM_ISOTOPIC_ATOM_COUNT>
0

> <PUBCHEM_COMPONENT_COUNT>
1

> <PUBCHEM_CACTVS_TAUTO_COUNT>
3

> <PUBCHEM_CONFORMER_ID>
009E81F000000001

> <PUBCHEM_MMFF94_ENERGY>
94.3421

> <PUBCHEM_FEATURE_SELFOVERLAP>
61.328

> <PUBCHEM_SHAPE_FINGERPRINT>
10 15 17846207899951692720
10319926 262 18342740671906512884
11135609 201 15123499337564267338
12166972 35 16732980950823815957
12236239 1 17894349999378190429
12596602 18 18113615728854147617
12633257 1 18408317783650746592
12760667 363 16515680009692725856
12892183 10 17632301133508215876
13533116 47 17095239246304311756
13583140 156 17561074787430180164
13782708 43 18342745091401844167
13914758 101 17385714773945229869
14068700 675 17530678810092468581
14294032 229 17243011255594240893
14341114 176 17917720110278411653
146900 427 15626224636748604818
15183329 4 12901540230991636133
15188451 53 18333443257632768259
15475509 35 18265892467970291242
15788980 27 16950282897135735613
17349148 13 17530971288975415879
17857418 61 17821445742415742874
17913733 40 16845570928707962102
1813 80 17821451278512660405
18222031 100 17821734939622410661
19319366 153 15482669053031263750
19377110 9 15410896253937366043
1979834 28 17704357680059154084
20028762 73 17894624859973981930
21033648 29 17632580422805547561
21623969 137 17489585662668708314
21756936 100 12967125051532181589
21792934 111 18130796646954121081
22122407 14 15984545482216019849
22149856 69 17631471058828834547
23081809 10 17167869646797134733
23522609 53 17533242802964148244
23559900 14 18057618581120149116
23569914 152 12471122088761611626
23569943 247 16734371725732812578
3004659 81 17967825980400789943
312425 54 18270970037935134523
32027 91 17837495154611864967
3383291 50 18336834208209451259
3633792 109 14923939046690755230
3882209 13 17266355330434784143
392239 28 17775003544143155307
397830 11 17989202659376277659
4340502 62 17703791435591919286
5104073 3 17703235009509094067
6086070 43 17531232946709974629
6697151 62 16984618270444539886

> <PUBCHEM_SHAPE_MULTIPOLES>
615.38
17.07
2.28
2.04
2.22
0.2
0.05
-8.87
-7.14
2.91
-0.08
-3.15
-0.16
-0.1

> <PUBCHEM_SHAPE_SELFOVERLAP>
1321.355

> <PUBCHEM_SHAPE_VOLUME>
335

> <PUBCHEM_COORDINATE_TYPE>
2
5
10

$$$$
