57403608
  -OEChem-12071808443D

 33 33  0     1  0  0  0  0  0999 V2000
    3.6339   -0.0524   -0.9409 O   0  0  0  0  0  0  0  0  0  0  0  0
   -1.0352   -1.9103   -0.8085 O   0  0  0  0  0  0  0  0  0  0  0  0
    2.0455    2.3223   -0.0199 O   0  0  0  0  0  0  0  0  0  0  0  0
   -0.0499    1.4086   -0.2887 N   0  0  0  0  0  0  0  0  0  0  0  0
    1.0107   -1.0141   -0.2521 N   0  0  0  0  0  0  0  0  0  0  0  0
   -0.9727    0.3460    0.0828 C   0  0  1  0  0  0  0  0  0  0  0  0
   -2.3556    0.5875   -0.5004 C   0  0  0  0  0  0  0  0  0  0  0  0
    1.7344   -0.0213    0.5284 C   0  0  1  0  0  0  0  0  0  0  0  0
   -3.4602   -0.2573    0.1597 C   0  0  0  0  0  0  0  0  0  0  0  0
   -0.3654   -0.9590   -0.4137 C   0  0  0  0  0  0  0  0  0  0  0  0
    3.2373   -0.2205    0.4170 C   0  0  1  0  0  0  0  0  0  0  0  0
    1.3017    1.3450    0.0138 C   0  0  0  0  0  0  0  0  0  0  0  0
   -4.8003    0.0054   -0.5312 C   0  0  0  0  0  0  0  0  0  0  0  0
   -3.5882    0.0204    1.6581 C   0  0  0  0  0  0  0  0  0  0  0  0
    3.6640   -1.6003    0.8956 C   0  0  0  0  0  0  0  0  0  0  0  0
   -0.9832    0.3250    1.1763 H   0  0  0  0  0  0  0  0  0  0  0  0
   -2.6186    1.6483   -0.3874 H   0  0  0  0  0  0  0  0  0  0  0  0
   -2.3437    0.3944   -1.5816 H   0  0  0  0  0  0  0  0  0  0  0  0
    1.4099   -0.1120    1.5723 H   0  0  0  0  0  0  0  0  0  0  0  0
   -3.2419   -1.3231    0.0354 H   0  0  0  0  0  0  0  0  0  0  0  0
   -0.4249    2.3080   -0.5755 H   0  0  0  0  0  0  0  0  0  0  0  0
    3.7611    0.5415    1.0048 H   0  0  0  0  0  0  0  0  0  0  0  0
    1.4667   -1.8817   -0.5143 H   0  0  0  0  0  0  0  0  0  0  0  0
   -4.7386   -0.2250   -1.6001 H   0  0  0  0  0  0  0  0  0  0  0  0
   -5.5903   -0.6200   -0.1018 H   0  0  0  0  0  0  0  0  0  0  0  0
   -5.1033    1.0528   -0.4263 H   0  0  0  0  0  0  0  0  0  0  0  0
   -4.4694   -0.4829    2.0714 H   0  0  0  0  0  0  0  0  0  0  0  0
   -2.7242   -0.3529    2.2150 H   0  0  0  0  0  0  0  0  0  0  0  0
   -3.6912    1.0924    1.8572 H   0  0  0  0  0  0  0  0  0  0  0  0
    3.3347   -2.4013    0.2267 H   0  0  0  0  0  0  0  0  0  0  0  0
    3.3003   -1.8043    1.9072 H   0  0  0  0  0  0  0  0  0  0  0  0
    4.7585   -1.6606    0.9101 H   0  0  0  0  0  0  0  0  0  0  0  0
    3.1644   -0.7159   -1.4747 H   0  0  0  0  0  0  0  0  0  0  0  0
  1 11  1  0  0  0  0
  1 33  1  0  0  0  0
  2 10  2  0  0  0  0
  3 12  2  0  0  0  0
  4  6  1  0  0  0  0
  4 12  1  0  0  0  0
  4 21  1  0  0  0  0
  5  8  1  0  0  0  0
  5 10  1  0  0  0  0
  5 23  1  0  0  0  0
  6  7  1  0  0  0  0
  6 10  1  0  0  0  0
  6 16  1  0  0  0  0
  7  9  1  0  0  0  0
  7 17  1  0  0  0  0
  7 18  1  0  0  0  0
  8 11  1  0  0  0  0
  8 12  1  0  0  0  0
  8 19  1  0  0  0  0
  9 13  1  0  0  0  0
  9 14  1  0  0  0  0
  9 20  1  0  0  0  0
 11 15  1  0  0  0  0
 11 22  1  0  0  0  0
 13 24  1  0  0  0  0
 13 25  1  0  0  0  0
 13 26  1  0  0  0  0
 14 27  1  0  0  0  0
 14 28  1  0  0  0  0
 14 29  1  0  0  0  0
 15 30  1  0  0  0  0
 15 31  1  0  0  0  0
 15 32  1  0  0  0  0
M  END
> <PUBCHEM_COMPOUND_CID>
57403608

> <PUBCHEM_CONFORMER_RMSD>
0.6

> <PUBCHEM_CONFORMER_DIVERSEORDER>
1
22
4
24
14
5
28
20
10
13
21
17
3
16
12
6
27
23
2
15
9
11
19
26
8
18
25
7

> <PUBCHEM_MMFF94_PARTIAL_CHARGES>
13
1 -0.68
10 0.57
11 0.28
12 0.57
2 -0.57
21 0.37
23 0.37
3 -0.57
33 0.4
4 -0.73
5 -0.73
6 0.36
8 0.36

> <PUBCHEM_EFFECTIVE_ROTOR_COUNT>
3.8

> <PUBCHEM_PHARMACOPHORE_FEATURES>
8
1 1 acceptor
1 1 donor
1 2 acceptor
1 3 acceptor
1 4 donor
1 5 donor
3 9 13 14 hydrophobe
6 4 5 6 8 10 12 rings

> <PUBCHEM_HEAVY_ATOM_COUNT>
15

> <PUBCHEM_ATOM_DEF_STEREO_COUNT>
3

> <PUBCHEM_ATOM_UDEF_STEREO_COUNT>
0

> <PUBCHEM_BOND_DEF_STEREO_COUNT>
0

> <PUBCHEM_BOND_UDEF_STEREO_COUNT>
0

> <PUBCHEM_ISOTOPIC_ATOM_COUNT>
0

> <PUBCHEM_COMPONENT_COUNT>
1

> <PUBCHEM_CACTVS_TAUTO_COUNT>
9

> <PUBCHEM_CONFORMER_ID>
036BE8D800000001

> <PUBCHEM_MMFF94_ENERGY>
41.4078

> <PUBCHEM_FEATURE_SELFOVERLAP>
40.608

> <PUBCHEM_SHAPE_FINGERPRINT>
10130415 120 18273213114327466888
10219947 1 18411982446835842627
11132069 177 18131626790284680063
11471102 20 18409163320370558420
11543360 7 15575011554085140118
12032990 46 18337953368499332578
12251169 10 18412820304713551810
124424 183 17967810518702919131
12500047 106 16877656864608789723
12644460 14 18261395589528447616
12932764 1 18187639240891884199
13221675 6 18409166619021518690
13380535 21 18193846074388737516
13690532 89 18412537687254538775
13760787 5 18334580122322072839
13922767 16 18413384332925440345
14144814 61 18342174457725075738
14252887 29 18270960146810425202
14993402 34 18413392033479847430
15309172 13 18342179955716004019
15375462 189 18333445435376502866
15653759 3 17675926508314392417
16945 1 18342453725294259580
17844478 74 17894910728480221989
17862501 102 17917983984648032839
18175812 5 18040716991625905085
18186145 218 18202004339103154757
18511873 20 18343862229548658746
19026448 4 16588027909107286463
19107657 47 18408037412348457009
19422 9 17968381139262280728
200 152 18201709657692657861
20645477 70 18334287678283880655
20671657 1 18268716197585338900
20871998 22 18197781003393101806
21029758 27 18261678082369897292
21501502 16 18126277777610399598
23402539 116 14907888363359172801
23463225 33 18410571790465360996
23552423 10 18192141823070928516
23559900 14 16950001422100970034
2748010 2 18195521725888120148
465052 167 18335145293190765811
7364860 26 18200308956909207824
74978 22 18270679899561014022

> <PUBCHEM_SHAPE_MULTIPOLES>
281.12
7.68
1.65
1.02
3.54
0.34
-0.28
-1.31
-0.9
-1.25
0.11
0.49
-0.18
-0.32

> <PUBCHEM_SHAPE_SELFOVERLAP>
559.71

> <PUBCHEM_SHAPE_VOLUME>
165.4

> <PUBCHEM_COORDINATE_TYPE>
2
5
10

$$$$
