10446844
  -OEChem-12071808533D

 53 55  0     1  0  0  0  0  0999 V2000
   -3.8420   -1.6473   -1.4712 O   0  0  0  0  0  0  0  0  0  0  0  0
   -0.7093    0.7718   -0.0255 C   0  0  1  0  0  0  0  0  0  0  0  0
   -1.6661   -0.4911   -0.0132 C   0  0  2  0  0  0  0  0  0  0  0  0
    0.6416    0.3221   -0.7317 C   0  0  2  0  0  0  0  0  0  0  0  0
   -3.1773   -0.2435    0.3442 C   0  0  1  0  0  0  0  0  0  0  0  0
   -1.3979    1.8927   -0.8494 C   0  0  0  0  0  0  0  0  0  0  0  0
   -1.0172   -1.6696    0.7458 C   0  0  0  0  0  0  0  0  0  0  0  0
   -3.7104    0.9611   -0.4688 C   0  0  0  0  0  0  0  0  0  0  0  0
    1.2389   -0.8932   -0.0361 C   0  0  0  0  0  0  0  0  0  0  0  0
   -2.8240    2.1963   -0.3980 C   0  0  0  0  0  0  0  0  0  0  0  0
    0.3140   -2.0718    0.1083 C   0  0  0  0  0  0  0  0  0  0  0  0
    1.6904    1.4327   -0.9831 C   0  0  0  0  0  0  0  0  0  0  0  0
   -0.3921    1.3216    1.3838 C   0  0  0  0  0  0  0  0  0  0  0  0
   -4.0206   -1.4752   -0.0858 C   0  0  0  0  0  0  0  0  0  0  0  0
   -3.4604   -0.0363    1.8441 C   0  0  0  0  0  0  0  0  0  0  0  0
    2.7765    1.5292    0.0900 C   0  0  0  0  0  0  0  0  0  0  0  0
    3.4971    0.1876    0.3352 C   0  0  2  0  0  0  0  0  0  0  0  0
    2.5030   -0.9474    0.4197 C   0  0  0  0  0  0  0  0  0  0  0  0
    4.2684    0.2788    1.6646 C   0  0  0  0  0  0  0  0  0  0  0  0
    4.4843   -0.0808   -0.7745 C   0  0  0  0  0  0  0  0  0  0  0  0
    4.8031   -1.3377   -1.0983 C   0  0  0  0  0  0  0  0  0  0  0  0
   -1.6818   -0.8097   -1.0676 H   0  0  0  0  0  0  0  0  0  0  0  0
    0.3538   -0.0177   -1.7392 H   0  0  0  0  0  0  0  0  0  0  0  0
   -1.4205    1.6067   -1.9093 H   0  0  0  0  0  0  0  0  0  0  0  0
   -0.8268    2.8259   -0.7935 H   0  0  0  0  0  0  0  0  0  0  0  0
   -1.6620   -2.5527    0.7341 H   0  0  0  0  0  0  0  0  0  0  0  0
   -0.8613   -1.4144    1.7998 H   0  0  0  0  0  0  0  0  0  0  0  0
   -4.7204    1.2266   -0.1302 H   0  0  0  0  0  0  0  0  0  0  0  0
   -3.8099    0.7051   -1.5310 H   0  0  0  0  0  0  0  0  0  0  0  0
   -2.8285    2.6146    0.6136 H   0  0  0  0  0  0  0  0  0  0  0  0
   -3.2442    2.9733   -1.0484 H   0  0  0  0  0  0  0  0  0  0  0  0
    0.1295   -2.4966   -0.8867 H   0  0  0  0  0  0  0  0  0  0  0  0
    0.7675   -2.8698    0.7084 H   0  0  0  0  0  0  0  0  0  0  0  0
    1.2248    2.4130   -1.1118 H   0  0  0  0  0  0  0  0  0  0  0  0
    2.1820    1.2221   -1.9432 H   0  0  0  0  0  0  0  0  0  0  0  0
    0.2052    2.2366    1.3175 H   0  0  0  0  0  0  0  0  0  0  0  0
   -1.2800    1.6048    1.9433 H   0  0  0  0  0  0  0  0  0  0  0  0
    0.1645    0.6101    2.0000 H   0  0  0  0  0  0  0  0  0  0  0  0
   -5.0872   -1.3026    0.1007 H   0  0  0  0  0  0  0  0  0  0  0  0
   -3.7365   -2.3909    0.4391 H   0  0  0  0  0  0  0  0  0  0  0  0
   -3.1168    0.9267    2.2190 H   0  0  0  0  0  0  0  0  0  0  0  0
   -4.5398   -0.0589    2.0405 H   0  0  0  0  0  0  0  0  0  0  0  0
   -3.0118   -0.8249    2.4557 H   0  0  0  0  0  0  0  0  0  0  0  0
    3.4955    2.3074   -0.1998 H   0  0  0  0  0  0  0  0  0  0  0  0
    2.3282    1.8833    1.0250 H   0  0  0  0  0  0  0  0  0  0  0  0
    2.8312   -1.8619    0.9127 H   0  0  0  0  0  0  0  0  0  0  0  0
    4.9921    1.1029    1.6477 H   0  0  0  0  0  0  0  0  0  0  0  0
    3.5892    0.4536    2.5080 H   0  0  0  0  0  0  0  0  0  0  0  0
    4.8247   -0.6418    1.8810 H   0  0  0  0  0  0  0  0  0  0  0  0
    4.9783    0.7459   -1.2759 H   0  0  0  0  0  0  0  0  0  0  0  0
   -4.3789   -2.4121   -1.7395 H   0  0  0  0  0  0  0  0  0  0  0  0
    5.5344   -1.5067   -1.8838 H   0  0  0  0  0  0  0  0  0  0  0  0
    4.4084   -2.2272   -0.6253 H   0  0  0  0  0  0  0  0  0  0  0  0
  1 14  1  0  0  0  0
  1 51  1  0  0  0  0
  2  3  1  0  0  0  0
  2  4  1  0  0  0  0
  2  6  1  0  0  0  0
  2 13  1  0  0  0  0
  3  5  1  0  0  0  0
  3  7  1  0  0  0  0
  3 22  1  0  0  0  0
  4  9  1  0  0  0  0
  4 12  1  0  0  0  0
  4 23  1  0  0  0  0
  5  8  1  0  0  0  0
  5 14  1  0  0  0  0
  5 15  1  0  0  0  0
  6 10  1  0  0  0  0
  6 24  1  0  0  0  0
  6 25  1  0  0  0  0
  7 11  1  0  0  0  0
  7 26  1  0  0  0  0
  7 27  1  0  0  0  0
  8 10  1  0  0  0  0
  8 28  1  0  0  0  0
  8 29  1  0  0  0  0
  9 11  1  0  0  0  0
  9 18  2  0  0  0  0
 10 30  1  0  0  0  0
 10 31  1  0  0  0  0
 11 32  1  0  0  0  0
 11 33  1  0  0  0  0
 12 16  1  0  0  0  0
 12 34  1  0  0  0  0
 12 35  1  0  0  0  0
 13 36  1  0  0  0  0
 13 37  1  0  0  0  0
 13 38  1  0  0  0  0
 14 39  1  0  0  0  0
 14 40  1  0  0  0  0
 15 41  1  0  0  0  0
 15 42  1  0  0  0  0
 15 43  1  0  0  0  0
 16 17  1  0  0  0  0
 16 44  1  0  0  0  0
 16 45  1  0  0  0  0
 17 18  1  0  0  0  0
 17 19  1  0  0  0  0
 17 20  1  0  0  0  0
 18 46  1  0  0  0  0
 19 47  1  0  0  0  0
 19 48  1  0  0  0  0
 19 49  1  0  0  0  0
 20 21  2  0  0  0  0
 20 50  1  0  0  0  0
 21 52  1  0  0  0  0
 21 53  1  0  0  0  0
M  END
> <PUBCHEM_COMPOUND_CID>
10446844

> <PUBCHEM_CONFORMER_RMSD>
0.6

> <PUBCHEM_CONFORMER_DIVERSEORDER>
2
11
8
10
3
7
4
9
5
1
6

> <PUBCHEM_MMFF94_PARTIAL_CHARGES>
14
1 -0.68
11 0.14
14 0.28
17 0.28
18 -0.29
20 -0.29
21 -0.3
4 0.14
46 0.15
50 0.15
51 0.4
52 0.15
53 0.15
9 -0.28

> <PUBCHEM_EFFECTIVE_ROTOR_COUNT>
3.8

> <PUBCHEM_PHARMACOPHORE_FEATURES>
6
1 1 acceptor
1 1 donor
1 21 hydrophobe
6 2 3 4 7 9 11 rings
6 2 3 5 6 8 10 rings
6 4 9 12 16 17 18 rings

> <PUBCHEM_HEAVY_ATOM_COUNT>
21

> <PUBCHEM_ATOM_DEF_STEREO_COUNT>
4

> <PUBCHEM_ATOM_UDEF_STEREO_COUNT>
1

> <PUBCHEM_BOND_DEF_STEREO_COUNT>
0

> <PUBCHEM_BOND_UDEF_STEREO_COUNT>
0

> <PUBCHEM_ISOTOPIC_ATOM_COUNT>
0

> <PUBCHEM_COMPONENT_COUNT>
1

> <PUBCHEM_CACTVS_TAUTO_COUNT>
1

> <PUBCHEM_CONFORMER_ID>
009F67FC00000002

> <PUBCHEM_MMFF94_ENERGY>
75.0406

> <PUBCHEM_FEATURE_SELFOVERLAP>
30.485

> <PUBCHEM_SHAPE_FINGERPRINT>
10062212 137 18259979362495387081
10366900 7 18040158434970496674
10646746 165 18336546023691074044
10863032 1 18266734692900383513
11132069 177 18342172280176643682
11552529 35 16988273291629100759
11578080 2 18058146467177623017
12011746 2 18260833665908315854
12236239 1 18131075965519937435
12403259 226 18340203089343261193
12403259 415 18413671305349734608
12403260 363 18335690680616497893
12403814 3 18335426768515265985
12553582 1 18186806893499485378
12592029 89 18041280971796510467
12916754 54 18201440311065255077
13140716 1 18044943603995429466
13224815 77 18411135844193741809
13583140 156 17203313520873274820
13675066 3 18201716262840688488
14289901 80 18411134723244395912
14787075 74 18057030514103112856
15196674 1 18408041805910142140
15209289 33 18413116060335325802
15536298 74 18342457049815308862
15788980 27 18410294713524631383
15848702 151 17632027359629504158
16752209 62 18333729117776473266
16945 1 18259989296433028299
17349148 13 18187080684743000943
17357779 13 18335968870407204391
17804303 29 18334581230777257916
18186145 218 18201722829761249306
19862831 5 18411424977524402758
200 152 18130786750305017893
20510252 161 18413108363922925024
21033648 29 18271796904970837048
21267235 1 18335431183399014431
2334 1 17757561024328457882
23402539 116 18261666039044079653
23493267 7 17603874394259043697
23557571 272 18272377455673356453
23559900 14 18343018861903044612
2748010 2 18118406133333236287
2871803 45 18336537300749633047
296302 2 15864076463878166314
3286 77 17560799991174892809
34934 24 18188204278922260189
5104073 3 18335138674572180456
59755656 215 18335139757088639255
633830 44 17894636941589682814
69090 78 18342454880598614966
9709674 26 18409732901969846966

> <PUBCHEM_SHAPE_MULTIPOLES>
426.3
8.79
2.12
1.34
3.86
0.1
0.36
-1.46
-0.57
-1.04
-0.36
0.06
0.02
0.26

> <PUBCHEM_SHAPE_SELFOVERLAP>
888.759

> <PUBCHEM_SHAPE_VOLUME>
239.9

> <PUBCHEM_COORDINATE_TYPE>
2
5
10

$$$$
