101995835
  -OEChem-12071808373D

 54 57  0     1  0  0  0  0  0999 V2000
    0.9553   -2.9563   -0.6063 O   0  0  0  0  0  0  0  0  0  0  0  0
    2.5560   -1.2077    1.8817 O   0  0  0  0  0  0  0  0  0  0  0  0
    1.2025   -0.5906   -0.0731 C   0  0  2  0  0  0  0  0  0  0  0  0
    0.4755    0.6922    0.4439 C   0  0  2  0  0  0  0  0  0  0  0  0
   -1.0248    0.8622   -0.0601 C   0  0  1  0  0  0  0  0  0  0  0  0
   -1.7753   -0.4935    0.2299 C   0  0  2  0  0  0  0  0  0  0  0  0
    1.8369   -0.3896   -1.4617 C   0  0  0  0  0  0  0  0  0  0  0  0
    0.3444   -1.8555    0.0644 C   0  0  1  0  0  0  0  0  0  0  0  0
    2.9891    0.5647   -1.1547 C   0  0  2  0  0  0  0  0  0  0  0  0
   -1.0771   -1.6754   -0.4679 C   0  0  0  0  0  0  0  0  0  0  0  0
    1.3731    1.9560    0.3079 C   0  0  0  0  0  0  0  0  0  0  0  0
   -3.3382   -0.4790    0.0772 C   0  0  0  0  0  0  0  0  0  0  0  0
   -1.7238    1.9793    0.7727 C   0  0  0  0  0  0  0  0  0  0  0  0
    3.6900   -0.1579    0.0118 C   0  0  2  0  0  0  0  0  0  0  0  0
    2.4937   -0.7245    0.7582 C   0  0  0  0  0  0  0  0  0  0  0  0
    2.4030    1.9449   -0.8309 C   0  0  0  0  0  0  0  0  0  0  0  0
   -1.0618    1.2850   -1.5454 C   0  0  0  0  0  0  0  0  0  0  0  0
   -3.9158    0.7184    0.8715 C   0  0  0  0  0  0  0  0  0  0  0  0
   -3.2386    2.0492    0.5793 C   0  0  0  0  0  0  0  0  0  0  0  0
   -3.8322   -0.4482   -1.3804 C   0  0  0  0  0  0  0  0  0  0  0  0
   -3.9443   -1.7592    0.7136 C   0  0  0  0  0  0  0  0  0  0  0  0
    4.6124    0.6855    0.8683 C   0  0  0  0  0  0  0  0  0  0  0  0
    0.3751    0.5516    1.5334 H   0  0  0  0  0  0  0  0  0  0  0  0
   -1.6233   -0.6705    1.3085 H   0  0  0  0  0  0  0  0  0  0  0  0
    1.1588    0.0122   -2.2137 H   0  0  0  0  0  0  0  0  0  0  0  0
    2.2431   -1.3235   -1.8704 H   0  0  0  0  0  0  0  0  0  0  0  0
    0.2808   -2.1381    1.1231 H   0  0  0  0  0  0  0  0  0  0  0  0
    3.6667    0.6524   -2.0114 H   0  0  0  0  0  0  0  0  0  0  0  0
   -1.6150   -2.6121   -0.2884 H   0  0  0  0  0  0  0  0  0  0  0  0
   -1.0638   -1.5646   -1.5570 H   0  0  0  0  0  0  0  0  0  0  0  0
    1.9263    2.0588    1.2507 H   0  0  0  0  0  0  0  0  0  0  0  0
    0.7860    2.8759    0.2413 H   0  0  0  0  0  0  0  0  0  0  0  0
   -1.3113    2.9640    0.5269 H   0  0  0  0  0  0  0  0  0  0  0  0
   -1.5234    1.8188    1.8403 H   0  0  0  0  0  0  0  0  0  0  0  0
    4.2487   -1.0150   -0.3865 H   0  0  0  0  0  0  0  0  0  0  0  0
    1.9265    2.3355   -1.7385 H   0  0  0  0  0  0  0  0  0  0  0  0
    3.2078    2.6516   -0.5956 H   0  0  0  0  0  0  0  0  0  0  0  0
   -0.8902    0.4540   -2.2304 H   0  0  0  0  0  0  0  0  0  0  0  0
   -0.3198    2.0570   -1.7633 H   0  0  0  0  0  0  0  0  0  0  0  0
   -2.0129    1.7319   -1.8365 H   0  0  0  0  0  0  0  0  0  0  0  0
   -3.8147    0.5206    1.9477 H   0  0  0  0  0  0  0  0  0  0  0  0
   -4.9926    0.8158    0.6825 H   0  0  0  0  0  0  0  0  0  0  0  0
   -3.6455    2.8101    1.2567 H   0  0  0  0  0  0  0  0  0  0  0  0
   -3.4894    2.3874   -0.4307 H   0  0  0  0  0  0  0  0  0  0  0  0
   -5.0366   -1.6856    0.7789 H   0  0  0  0  0  0  0  0  0  0  0  0
   -3.7228   -2.6557    0.1262 H   0  0  0  0  0  0  0  0  0  0  0  0
   -3.5661   -1.9179    1.7297 H   0  0  0  0  0  0  0  0  0  0  0  0
   -3.6372    0.4988   -1.8814 H   0  0  0  0  0  0  0  0  0  0  0  0
   -3.3816   -1.2477   -1.9770 H   0  0  0  0  0  0  0  0  0  0  0  0
   -4.9191   -0.5920   -1.4227 H   0  0  0  0  0  0  0  0  0  0  0  0
    4.0766    1.4450    1.4435 H   0  0  0  0  0  0  0  0  0  0  0  0
    5.3674    1.1841    0.2525 H   0  0  0  0  0  0  0  0  0  0  0  0
    5.1346    0.0538    1.5954 H   0  0  0  0  0  0  0  0  0  0  0  0
    0.3971   -3.7387   -0.4588 H   0  0  0  0  0  0  0  0  0  0  0  0
  1  8  1  0  0  0  0
  1 54  1  0  0  0  0
  2 15  2  0  0  0  0
  3  4  1  0  0  0  0
  3  7  1  0  0  0  0
  3  8  1  0  0  0  0
  3 15  1  0  0  0  0
  4  5  1  0  0  0  0
  4 11  1  0  0  0  0
  4 23  1  0  0  0  0
  5  6  1  0  0  0  0
  5 13  1  0  0  0  0
  5 17  1  0  0  0  0
  6 10  1  0  0  0  0
  6 12  1  0  0  0  0
  6 24  1  0  0  0  0
  7  9  1  0  0  0  0
  7 25  1  0  0  0  0
  7 26  1  0  0  0  0
  8 10  1  0  0  0  0
  8 27  1  0  0  0  0
  9 14  1  0  0  0  0
  9 16  1  0  0  0  0
  9 28  1  0  0  0  0
 10 29  1  0  0  0  0
 10 30  1  0  0  0  0
 11 16  1  0  0  0  0
 11 31  1  0  0  0  0
 11 32  1  0  0  0  0
 12 18  1  0  0  0  0
 12 20  1  0  0  0  0
 12 21  1  0  0  0  0
 13 19  1  0  0  0  0
 13 33  1  0  0  0  0
 13 34  1  0  0  0  0
 14 15  1  0  0  0  0
 14 22  1  0  0  0  0
 14 35  1  0  0  0  0
 16 36  1  0  0  0  0
 16 37  1  0  0  0  0
 17 38  1  0  0  0  0
 17 39  1  0  0  0  0
 17 40  1  0  0  0  0
 18 19  1  0  0  0  0
 18 41  1  0  0  0  0
 18 42  1  0  0  0  0
 19 43  1  0  0  0  0
 19 44  1  0  0  0  0
 20 48  1  0  0  0  0
 20 49  1  0  0  0  0
 20 50  1  0  0  0  0
 21 45  1  0  0  0  0
 21 46  1  0  0  0  0
 21 47  1  0  0  0  0
 22 51  1  0  0  0  0
 22 52  1  0  0  0  0
 22 53  1  0  0  0  0
M  END
> <PUBCHEM_COMPOUND_CID>
101995835

> <PUBCHEM_CONFORMER_RMSD>
0.6

> <PUBCHEM_CONFORMER_DIVERSEORDER>
1

> <PUBCHEM_MMFF94_PARTIAL_CHARGES>
7
1 -0.68
14 0.06
15 0.45
2 -0.57
3 0.06
54 0.4
8 0.28

> <PUBCHEM_EFFECTIVE_ROTOR_COUNT>
2

> <PUBCHEM_PHARMACOPHORE_FEATURES>
7
1 1 acceptor
1 1 donor
1 2 acceptor
3 12 20 21 hydrophobe
6 3 4 5 6 8 10 rings
6 5 6 12 13 18 19 rings
8 3 4 7 9 11 14 15 16 rings

> <PUBCHEM_HEAVY_ATOM_COUNT>
22

> <PUBCHEM_ATOM_DEF_STEREO_COUNT>
7

> <PUBCHEM_ATOM_UDEF_STEREO_COUNT>
0

> <PUBCHEM_BOND_DEF_STEREO_COUNT>
0

> <PUBCHEM_BOND_UDEF_STEREO_COUNT>
0

> <PUBCHEM_ISOTOPIC_ATOM_COUNT>
0

> <PUBCHEM_COMPONENT_COUNT>
1

> <PUBCHEM_CACTVS_TAUTO_COUNT>
2

> <PUBCHEM_CONFORMER_ID>
0614553B00000001

> <PUBCHEM_MMFF94_ENERGY>
89.4823

> <PUBCHEM_FEATURE_SELFOVERLAP>
35.549

> <PUBCHEM_SHAPE_FINGERPRINT>
10062212 137 18411415099073332643
10498660 4 18272373027483342665
10616163 171 18410863165742914411
10646746 165 18272373053221368088
10759866 29 17968384566693766198
10863032 1 17916594115602583860
10948715 1 18131348635555014008
10967382 1 18340495443630128329
11132069 177 18409452457695551593
11578080 2 18043223895048988133
12236239 1 18113338626771010446
12403814 3 17967251966849094333
12507557 5 18113613516866809933
12553582 1 18410863135672894561
12633257 1 18187926106358552235
13140716 1 18124315162387674259
13221675 6 18411703209426401367
13224815 77 18409733971506186049
13538477 17 18262235654881988510
13583140 156 17385437748090199771
13965767 371 18047755893063241184
14178342 30 18268990882160277985
14223421 5 18337113375912010199
14289901 80 17561081401811502789
14787075 74 17614011006946546087
15196674 1 18412548699497788848
15309172 13 18343024393277784843
15375462 189 18186522072912251336
15775835 57 18259993673284290788
16752209 62 18272083894690381717
16945 1 18342460348250121375
17349148 13 18338218398098988503
18186145 218 18334582351499815885
19591789 44 18340777034386547575
200 152 18343007909578256101
20028762 73 17771912898610498063
20510252 161 18131356310139482449
20525323 117 18340200787535923267
20691752 17 17969518017000309743
20715895 44 17897993643732611365
21267235 1 18337684095208244315
21501502 16 18335143059665100137
22854114 111 18040719207507432268
2334 1 17908139133331277551
23402539 116 18201996629779224980
23419403 2 15753930841992480766
23463225 33 18334576815181482552
23557571 272 17060334137194167331
23559900 14 18129390302150568748
2748010 2 17980764053910047627
296302 2 16200434701703093560
3286 77 18409447028862391644
34934 24 18201436914094653833
350125 39 18337956791324867744
352729 6 18267314311685638894
4409770 3 16098257803320179150
5104073 3 18413110532823011098
633830 44 18201730556365424877
7097593 13 17824533084977658666
7364860 26 18055640516567808558
7832392 63 18125734391459975061
90525 40 18413110549955380767
9709674 26 18272098196578283607

> <PUBCHEM_SHAPE_MULTIPOLES>
441.01
7.37
2.39
1.32
0.76
0.31
-0.17
-0.41
1.2
0.55
0.08
-0.24
-0.02
-0.47

> <PUBCHEM_SHAPE_SELFOVERLAP>
943.047

> <PUBCHEM_SHAPE_VOLUME>
242.3

> <PUBCHEM_COORDINATE_TYPE>
2
5
10

$$$$
