12313936
  -OEChem-12071808523D

 86 90  0     1  0  0  0  0  0999 V2000
    1.8594   -2.3114   -0.0835 O   0  0  0  0  0  0  0  0  0  0  0  0
   -4.1779    2.8432    0.1376 O   0  0  0  0  0  0  0  0  0  0  0  0
    5.2384    0.6371   -0.2614 O   0  0  0  0  0  0  0  0  0  0  0  0
   -5.9939   -2.1882   -0.5492 O   0  0  0  0  0  0  0  0  0  0  0  0
   -0.9351    0.9658   -0.4180 C   0  0  1  0  0  0  0  0  0  0  0  0
    0.5150    1.2394    0.2116 C   0  0  1  0  0  0  0  0  0  0  0  0
   -1.4445   -0.4282    0.1332 C   0  0  1  0  0  0  0  0  0  0  0  0
   -2.9681   -0.8008   -0.1453 C   0  0  2  0  0  0  0  0  0  0  0  0
    1.4730    0.0846   -0.1918 C   0  0  1  0  0  0  0  0  0  0  0  0
   -3.8785    0.4101    0.3012 C   0  0  1  0  0  0  0  0  0  0  0  0
    2.8720    0.5824    0.2135 C   0  0  2  0  0  0  0  0  0  0  0  0
   -1.9455    2.0572   -0.0002 C   0  0  0  0  0  0  0  0  0  0  0  0
   -0.4281   -1.5648   -0.1691 C   0  0  0  0  0  0  0  0  0  0  0  0
    1.3216    2.4364   -0.3400 C   0  0  0  0  0  0  0  0  0  0  0  0
    0.9942   -1.2631    0.3419 C   0  0  1  0  0  0  0  0  0  0  0  0
   -3.4091    1.7440   -0.3480 C   0  0  2  0  0  0  0  0  0  0  0  0
    2.7941    2.1098   -0.0193 C   0  0  0  0  0  0  0  0  0  0  0  0
   -5.4481    0.1246    0.2441 C   0  0  0  0  0  0  0  0  0  0  0  0
   -3.3224   -2.0512    0.7357 C   0  0  0  0  0  0  0  0  0  0  0  0
   -0.8590    0.9875   -1.9715 C   0  0  0  0  0  0  0  0  0  0  0  0
    0.4536    1.4364    1.7639 C   0  0  0  0  0  0  0  0  0  0  0  0
    4.0222   -0.0506   -0.5787 C   0  0  2  0  0  0  0  0  0  0  0  0
   -3.1928   -1.1930   -1.6248 C   0  0  0  0  0  0  0  0  0  0  0  0
   -5.7766   -1.3678    0.5945 C   0  0  2  0  0  0  0  0  0  0  0  0
   -4.6825   -2.0094    1.4347 C   0  0  0  0  0  0  0  0  0  0  0  0
   -6.1548    0.9724    1.3451 C   0  0  0  0  0  0  0  0  0  0  0  0
   -6.0868    0.5308   -1.1000 C   0  0  0  0  0  0  0  0  0  0  0  0
    4.0815   -1.5682   -0.3330 C   0  0  0  0  0  0  0  0  0  0  0  0
    3.7828    0.2304   -2.0719 C   0  0  0  0  0  0  0  0  0  0  0  0
    5.4588   -2.1269   -0.6384 C   0  0  0  0  0  0  0  0  0  0  0  0
    6.1779    0.0130    0.6162 C   0  0  0  0  0  0  0  0  0  0  0  0
    6.5582   -1.4010    0.1318 C   0  0  0  0  0  0  0  0  0  0  0  0
    7.4287    0.9080    0.5726 C   0  0  0  0  0  0  0  0  0  0  0  0
    5.6724    0.0118    2.0668 C   0  0  0  0  0  0  0  0  0  0  0  0
   -1.4295   -0.3316    1.2260 H   0  0  0  0  0  0  0  0  0  0  0  0
    1.4556    0.0005   -1.2791 H   0  0  0  0  0  0  0  0  0  0  0  0
   -3.6659    0.5396    1.3755 H   0  0  0  0  0  0  0  0  0  0  0  0
    3.0370    0.4069    1.2820 H   0  0  0  0  0  0  0  0  0  0  0  0
   -1.6664    3.0235   -0.4412 H   0  0  0  0  0  0  0  0  0  0  0  0
   -1.9089    2.2228    1.0818 H   0  0  0  0  0  0  0  0  0  0  0  0
   -0.7526   -2.5108    0.2787 H   0  0  0  0  0  0  0  0  0  0  0  0
   -0.3755   -1.7689   -1.2442 H   0  0  0  0  0  0  0  0  0  0  0  0
    1.0158    3.3952    0.0915 H   0  0  0  0  0  0  0  0  0  0  0  0
    1.2424    2.5306   -1.4256 H   0  0  0  0  0  0  0  0  0  0  0  0
    1.0053   -1.2667    1.4372 H   0  0  0  0  0  0  0  0  0  0  0  0
   -3.5551    1.7259   -1.4299 H   0  0  0  0  0  0  0  0  0  0  0  0
    3.4651    2.5300   -0.7715 H   0  0  0  0  0  0  0  0  0  0  0  0
    3.0748    2.6141    0.9151 H   0  0  0  0  0  0  0  0  0  0  0  0
   -2.5825   -2.1891    1.5342 H   0  0  0  0  0  0  0  0  0  0  0  0
   -3.2592   -2.9646    0.1294 H   0  0  0  0  0  0  0  0  0  0  0  0
   -0.2646    0.1731   -2.3898 H   0  0  0  0  0  0  0  0  0  0  0  0
   -1.8349    0.9260   -2.4473 H   0  0  0  0  0  0  0  0  0  0  0  0
   -0.4474    1.9293   -2.3438 H   0  0  0  0  0  0  0  0  0  0  0  0
   -0.0620    2.3666    2.0234 H   0  0  0  0  0  0  0  0  0  0  0  0
   -0.0448    0.6205    2.2893 H   0  0  0  0  0  0  0  0  0  0  0  0
    1.4420    1.5209    2.2246 H   0  0  0  0  0  0  0  0  0  0  0  0
   -4.0621   -1.8373   -1.7600 H   0  0  0  0  0  0  0  0  0  0  0  0
   -3.3632   -0.3348   -2.2735 H   0  0  0  0  0  0  0  0  0  0  0  0
   -2.3535   -1.7596   -2.0354 H   0  0  0  0  0  0  0  0  0  0  0  0
   -6.7158   -1.4167    1.1587 H   0  0  0  0  0  0  0  0  0  0  0  0
   -4.9624   -3.0370    1.6983 H   0  0  0  0  0  0  0  0  0  0  0  0
   -4.5847   -1.4654    2.3824 H   0  0  0  0  0  0  0  0  0  0  0  0
   -6.1216    2.0449    1.1444 H   0  0  0  0  0  0  0  0  0  0  0  0
   -7.2198    0.7175    1.4120 H   0  0  0  0  0  0  0  0  0  0  0  0
   -5.7142    0.7969    2.3325 H   0  0  0  0  0  0  0  0  0  0  0  0
   -7.1561    0.2875   -1.1081 H   0  0  0  0  0  0  0  0  0  0  0  0
   -6.0075    1.6063   -1.2862 H   0  0  0  0  0  0  0  0  0  0  0  0
   -5.6313    0.0143   -1.9479 H   0  0  0  0  0  0  0  0  0  0  0  0
    3.4959   -2.0822   -1.0961 H   0  0  0  0  0  0  0  0  0  0  0  0
    3.8451   -1.8416    0.6984 H   0  0  0  0  0  0  0  0  0  0  0  0
    1.5137   -3.1440    0.2811 H   0  0  0  0  0  0  0  0  0  0  0  0
   -4.0292    2.9155    1.0959 H   0  0  0  0  0  0  0  0  0  0  0  0
    2.9858   -0.3754   -2.5128 H   0  0  0  0  0  0  0  0  0  0  0  0
    3.5976    1.2763   -2.3235 H   0  0  0  0  0  0  0  0  0  0  0  0
    4.6922   -0.0217   -2.6342 H   0  0  0  0  0  0  0  0  0  0  0  0
    5.4947   -3.2005   -0.4188 H   0  0  0  0  0  0  0  0  0  0  0  0
    5.6632   -2.0316   -1.7128 H   0  0  0  0  0  0  0  0  0  0  0  0
   -6.2252   -3.0798   -0.2376 H   0  0  0  0  0  0  0  0  0  0  0  0
    6.8762   -2.0117    0.9865 H   0  0  0  0  0  0  0  0  0  0  0  0
    7.4350   -1.3564   -0.5280 H   0  0  0  0  0  0  0  0  0  0  0  0
    7.8026    1.0060   -0.4535 H   0  0  0  0  0  0  0  0  0  0  0  0
    7.1936    1.9243    0.9103 H   0  0  0  0  0  0  0  0  0  0  0  0
    8.2346    0.5113    1.1992 H   0  0  0  0  0  0  0  0  0  0  0  0
    5.3150    1.0074    2.3540 H   0  0  0  0  0  0  0  0  0  0  0  0
    4.8383   -0.6765    2.2190 H   0  0  0  0  0  0  0  0  0  0  0  0
    6.4640   -0.2846    2.7640 H   0  0  0  0  0  0  0  0  0  0  0  0
  1 15  1  0  0  0  0
  1 71  1  0  0  0  0
  2 16  1  0  0  0  0
  2 72  1  0  0  0  0
  3 22  1  0  0  0  0
  3 31  1  0  0  0  0
  4 24  1  0  0  0  0
  4 78  1  0  0  0  0
  5  6  1  0  0  0  0
  5  7  1  0  0  0  0
  5 12  1  0  0  0  0
  5 20  1  0  0  0  0
  6  9  1  0  0  0  0
  6 14  1  0  0  0  0
  6 21  1  0  0  0  0
  7  8  1  0  0  0  0
  7 13  1  0  0  0  0
  7 35  1  0  0  0  0
  8 10  1  0  0  0  0
  8 19  1  0  0  0  0
  8 23  1  0  0  0  0
  9 11  1  0  0  0  0
  9 15  1  0  0  0  0
  9 36  1  0  0  0  0
 10 16  1  0  0  0  0
 10 18  1  0  0  0  0
 10 37  1  0  0  0  0
 11 17  1  0  0  0  0
 11 22  1  0  0  0  0
 11 38  1  0  0  0  0
 12 16  1  0  0  0  0
 12 39  1  0  0  0  0
 12 40  1  0  0  0  0
 13 15  1  0  0  0  0
 13 41  1  0  0  0  0
 13 42  1  0  0  0  0
 14 17  1  0  0  0  0
 14 43  1  0  0  0  0
 14 44  1  0  0  0  0
 15 45  1  0  0  0  0
 16 46  1  0  0  0  0
 17 47  1  0  0  0  0
 17 48  1  0  0  0  0
 18 24  1  0  0  0  0
 18 26  1  0  0  0  0
 18 27  1  0  0  0  0
 19 25  1  0  0  0  0
 19 49  1  0  0  0  0
 19 50  1  0  0  0  0
 20 51  1  0  0  0  0
 20 52  1  0  0  0  0
 20 53  1  0  0  0  0
 21 54  1  0  0  0  0
 21 55  1  0  0  0  0
 21 56  1  0  0  0  0
 22 28  1  0  0  0  0
 22 29  1  0  0  0  0
 23 57  1  0  0  0  0
 23 58  1  0  0  0  0
 23 59  1  0  0  0  0
 24 25  1  0  0  0  0
 24 60  1  0  0  0  0
 25 61  1  0  0  0  0
 25 62  1  0  0  0  0
 26 63  1  0  0  0  0
 26 64  1  0  0  0  0
 26 65  1  0  0  0  0
 27 66  1  0  0  0  0
 27 67  1  0  0  0  0
 27 68  1  0  0  0  0
 28 30  1  0  0  0  0
 28 69  1  0  0  0  0
 28 70  1  0  0  0  0
 29 73  1  0  0  0  0
 29 74  1  0  0  0  0
 29 75  1  0  0  0  0
 30 32  1  0  0  0  0
 30 76  1  0  0  0  0
 30 77  1  0  0  0  0
 31 32  1  0  0  0  0
 31 33  1  0  0  0  0
 31 34  1  0  0  0  0
 32 79  1  0  0  0  0
 32 80  1  0  0  0  0
 33 81  1  0  0  0  0
 33 82  1  0  0  0  0
 33 83  1  0  0  0  0
 34 84  1  0  0  0  0
 34 85  1  0  0  0  0
 34 86  1  0  0  0  0
M  END
> <PUBCHEM_COMPOUND_CID>
12313936

> <PUBCHEM_CONFORMER_RMSD>
0.8

> <PUBCHEM_CONFORMER_DIVERSEORDER>
1
2

> <PUBCHEM_MMFF94_PARTIAL_CHARGES>
12
1 -0.68
15 0.28
16 0.28
2 -0.68
22 0.28
24 0.28
3 -0.56
31 0.28
4 -0.68
71 0.4
72 0.4
78 0.4

> <PUBCHEM_EFFECTIVE_ROTOR_COUNT>
4.4

> <PUBCHEM_PHARMACOPHORE_FEATURES>
14
1 1 acceptor
1 1 donor
1 2 acceptor
1 2 donor
1 3 acceptor
1 4 acceptor
1 4 donor
3 18 26 27 hydrophobe
3 31 33 34 hydrophobe
5 6 9 11 14 17 rings
6 3 22 28 30 31 32 rings
6 5 6 7 9 13 15 rings
6 5 7 8 10 12 16 rings
6 8 10 18 19 24 25 rings

> <PUBCHEM_HEAVY_ATOM_COUNT>
34

> <PUBCHEM_ATOM_DEF_STEREO_COUNT>
11

> <PUBCHEM_ATOM_UDEF_STEREO_COUNT>
0

> <PUBCHEM_BOND_DEF_STEREO_COUNT>
0

> <PUBCHEM_BOND_UDEF_STEREO_COUNT>
0

> <PUBCHEM_ISOTOPIC_ATOM_COUNT>
0

> <PUBCHEM_COMPONENT_COUNT>
1

> <PUBCHEM_CACTVS_TAUTO_COUNT>
1

> <PUBCHEM_CONFORMER_ID>
00BBE55000000001

> <PUBCHEM_MMFF94_ENERGY>
204.4659

> <PUBCHEM_FEATURE_SELFOVERLAP>
71.128

> <PUBCHEM_SHAPE_FINGERPRINT>
10 15 18341043104122429608
11578080 2 16517354497704832303
11646440 116 18060422430297253056
11963148 33 18261104184308520946
11991303 11 12973901324425171984
12107698 1 18410856590168797423
12166972 35 17095245834720743588
12236239 1 17775286049400398147
12422481 6 18343308062914179695
12516196 113 18202283610645390352
12596602 18 14908181953863690903
13140716 1 18121217851006640018
13402501 40 18408606954739502642
13583140 156 13326855560547051367
13782708 43 18413390959859667367
13811026 1 18409445878449316890
14251764 18 18187365463145381836
14394314 77 18343587308956397129
14840074 17 16343983620090381208
14849402 71 18270400632699582736
14856354 85 18040725792061834907
14955137 171 18342738511881107944
15021287 119 17530972383992194877
15131766 46 15409174500955108408
15183329 4 18335143085149833405
15196674 1 18410857629672195822
15927050 60 17693659621147764084
17349148 13 17168151122095592078
17857418 61 18334295370316944297
18608769 82 18412261762034938202
20028762 73 18342738558772814126
21033648 29 17703211958419441369
21130935 74 18201721738824472282
21236236 1 18410856534191862625
21267235 1 18409455781868291919
21279426 13 18339364041643307070
21623969 137 17917714587029681622
21682296 61 18201447913004973158
22149856 69 18341348707418203433
23522609 53 18119843332586595149
23559900 14 18409162251509621489
23569914 152 12328399986329231587
3004659 81 18040721364134760038
3178227 256 18336838562366220627
335352 9 18409167718780943269
3383291 50 18188212108527134443
350125 39 18410294726430931064
3633792 109 18338226078128371965
3886686 26 16964609281002677690
392239 28 18411428323399099529
394071 54 16271927142991922664
4073 2 18259991483162401434
4093350 32 16916790656800355838
5104073 3 18341327782965453666
59755656 215 18261107439671255742
59755656 520 15502380032579246361
6081469 158 17968090946245842551
6086070 43 18116129204404465101

> <PUBCHEM_SHAPE_MULTIPOLES>
676.23
17.39
2.57
1.42
7.58
0.05
-0.07
-3.89
3.05
-1.2
0.07
0.16
0.07
0.58

> <PUBCHEM_SHAPE_SELFOVERLAP>
1429.762

> <PUBCHEM_SHAPE_VOLUME>
378.2

> <PUBCHEM_COORDINATE_TYPE>
2
5
10

$$$$
