44584103
  -OEChem-12071808473D

 54 57  0     1  0  0  0  0  0999 V2000
   -0.0486   -0.7020   -0.3986 O   0  0  0  0  0  0  0  0  0  0  0  0
   -2.1345   -1.3909   -1.2961 O   0  0  0  0  0  0  0  0  0  0  0  0
    1.4381    1.6028    0.4807 O   0  0  0  0  0  0  0  0  0  0  0  0
   -1.1847   -4.0918   -1.0442 O   0  0  0  0  0  0  0  0  0  0  0  0
   -1.5247   -4.1753    1.7166 O   0  0  0  0  0  0  0  0  0  0  0  0
   -3.5721   -2.2069    1.9989 O   0  0  0  0  0  0  0  0  0  0  0  0
    4.4922   -1.4151   -1.7637 O   0  0  0  0  0  0  0  0  0  0  0  0
    5.7791    0.8531    2.2162 O   0  0  0  0  0  0  0  0  0  0  0  0
   -4.4746    3.7627    0.5802 O   0  0  0  0  0  0  0  0  0  0  0  0
   -0.6763   -3.0277   -0.2380 C   0  0  1  0  0  0  0  0  0  0  0  0
   -0.7672   -1.7404   -1.0553 C   0  0  2  0  0  0  0  0  0  0  0  0
   -1.4917   -2.9148    1.0513 C   0  0  1  0  0  0  0  0  0  0  0  0
   -2.9226   -2.4636    0.7562 C   0  0  2  0  0  0  0  0  0  0  0  0
    0.5018    0.2254   -1.3351 C   0  0  1  0  0  0  0  0  0  0  0  0
   -2.9080   -1.1949   -0.1079 C   0  0  2  0  0  0  0  0  0  0  0  0
    0.6134    1.6156   -0.6957 C   0  0  1  0  0  0  0  0  0  0  0  0
    1.8897   -0.2521   -1.7577 C   0  0  0  0  0  0  0  0  0  0  0  0
    2.9139    0.0560   -0.6989 C   0  0  0  0  0  0  0  0  0  0  0  0
   -4.3107   -0.7886   -0.5512 C   0  0  0  0  0  0  0  0  0  0  0  0
   -0.7486    2.1908   -0.3544 C   0  0  0  0  0  0  0  0  0  0  0  0
    2.6388    0.9567    0.3378 C   0  0  0  0  0  0  0  0  0  0  0  0
    4.1758   -0.5510   -0.7567 C   0  0  0  0  0  0  0  0  0  0  0  0
    3.5964    1.2136    1.3223 C   0  0  0  0  0  0  0  0  0  0  0  0
   -1.4435    2.9468   -1.2985 C   0  0  0  0  0  0  0  0  0  0  0  0
   -1.3059    1.9632    0.9039 C   0  0  0  0  0  0  0  0  0  0  0  0
    5.1358   -0.2825    0.2195 C   0  0  0  0  0  0  0  0  0  0  0  0
    4.8446    0.5960    1.2606 C   0  0  0  0  0  0  0  0  0  0  0  0
   -2.6955    3.4752   -0.9844 C   0  0  0  0  0  0  0  0  0  0  0  0
   -2.5578    2.4917    1.2182 C   0  0  0  0  0  0  0  0  0  0  0  0
   -3.2527    3.2477    0.2741 C   0  0  0  0  0  0  0  0  0  0  0  0
    0.3639   -3.2696    0.0092 H   0  0  0  0  0  0  0  0  0  0  0  0
   -0.3334   -1.9424   -2.0427 H   0  0  0  0  0  0  0  0  0  0  0  0
   -1.0146   -2.2048    1.7384 H   0  0  0  0  0  0  0  0  0  0  0  0
   -3.4729   -3.2710    0.2590 H   0  0  0  0  0  0  0  0  0  0  0  0
   -0.1481    0.2912   -2.2188 H   0  0  0  0  0  0  0  0  0  0  0  0
   -2.4890   -0.3659    0.4643 H   0  0  0  0  0  0  0  0  0  0  0  0
    1.0915    2.3084   -1.4040 H   0  0  0  0  0  0  0  0  0  0  0  0
    1.8796   -1.3295   -1.9562 H   0  0  0  0  0  0  0  0  0  0  0  0
    2.1888    0.2670   -2.6766 H   0  0  0  0  0  0  0  0  0  0  0  0
   -4.7730   -1.5765   -1.1560 H   0  0  0  0  0  0  0  0  0  0  0  0
   -4.2662    0.1065   -1.1812 H   0  0  0  0  0  0  0  0  0  0  0  0
   -4.9575   -0.5777    0.3055 H   0  0  0  0  0  0  0  0  0  0  0  0
   -0.6057   -4.1747   -1.8210 H   0  0  0  0  0  0  0  0  0  0  0  0
   -0.6045   -4.4411    1.8847 H   0  0  0  0  0  0  0  0  0  0  0  0
   -3.1107   -1.4693    2.4334 H   0  0  0  0  0  0  0  0  0  0  0  0
    3.3656    1.9020    2.1320 H   0  0  0  0  0  0  0  0  0  0  0  0
   -1.0212    3.1287   -2.2831 H   0  0  0  0  0  0  0  0  0  0  0  0
   -0.7883    1.3693    1.6523 H   0  0  0  0  0  0  0  0  0  0  0  0
    6.1135   -0.7565    0.1765 H   0  0  0  0  0  0  0  0  0  0  0  0
   -3.2325    4.0624   -1.7243 H   0  0  0  0  0  0  0  0  0  0  0  0
   -2.9826    2.3041    2.2007 H   0  0  0  0  0  0  0  0  0  0  0  0
    5.4026   -1.7331   -1.6378 H   0  0  0  0  0  0  0  0  0  0  0  0
    5.4088    1.4828    2.8584 H   0  0  0  0  0  0  0  0  0  0  0  0
   -4.7058    3.5060    1.4895 H   0  0  0  0  0  0  0  0  0  0  0  0
  1 11  1  0  0  0  0
  1 14  1  0  0  0  0
  2 11  1  0  0  0  0
  2 15  1  0  0  0  0
  3 16  1  0  0  0  0
  3 21  1  0  0  0  0
  4 10  1  0  0  0  0
  4 43  1  0  0  0  0
  5 12  1  0  0  0  0
  5 44  1  0  0  0  0
  6 13  1  0  0  0  0
  6 45  1  0  0  0  0
  7 22  1  0  0  0  0
  7 52  1  0  0  0  0
  8 27  1  0  0  0  0
  8 53  1  0  0  0  0
  9 30  1  0  0  0  0
  9 54  1  0  0  0  0
 10 11  1  0  0  0  0
 10 12  1  0  0  0  0
 10 31  1  0  0  0  0
 11 32  1  0  0  0  0
 12 13  1  0  0  0  0
 12 33  1  0  0  0  0
 13 15  1  0  0  0  0
 13 34  1  0  0  0  0
 14 16  1  0  0  0  0
 14 17  1  0  0  0  0
 14 35  1  0  0  0  0
 15 19  1  0  0  0  0
 15 36  1  0  0  0  0
 16 20  1  0  0  0  0
 16 37  1  0  0  0  0
 17 18  1  0  0  0  0
 17 38  1  0  0  0  0
 17 39  1  0  0  0  0
 18 21  1  0  0  0  0
 18 22  2  0  0  0  0
 19 40  1  0  0  0  0
 19 41  1  0  0  0  0
 19 42  1  0  0  0  0
 20 24  2  0  0  0  0
 20 25  1  0  0  0  0
 21 23  2  0  0  0  0
 22 26  1  0  0  0  0
 23 27  1  0  0  0  0
 23 46  1  0  0  0  0
 24 28  1  0  0  0  0
 24 47  1  0  0  0  0
 25 29  2  0  0  0  0
 25 48  1  0  0  0  0
 26 27  2  0  0  0  0
 26 49  1  0  0  0  0
 28 30  2  0  0  0  0
 28 50  1  0  0  0  0
 29 30  1  0  0  0  0
 29 51  1  0  0  0  0
M  END
> <PUBCHEM_COMPOUND_CID>
44584103

> <PUBCHEM_CONFORMER_RMSD>
0.8

> <PUBCHEM_CONFORMER_DIVERSEORDER>
1
22
10
28
15
16
20
13
18
21
11
30
26
14
27
7
6
29
25
9
8
23
24
3
4
17
2
19
12
5

> <PUBCHEM_MMFF94_PARTIAL_CHARGES>
41
1 -0.56
10 0.28
11 0.56
12 0.28
13 0.28
14 0.28
15 0.28
16 0.42
17 0.14
18 -0.14
2 -0.56
20 -0.14
21 0.08
22 0.08
23 -0.15
24 -0.15
25 -0.15
26 -0.15
27 0.08
28 -0.15
29 -0.15
3 -0.36
30 0.08
4 -0.68
43 0.4
44 0.4
45 0.4
46 0.15
47 0.15
48 0.15
49 0.15
5 -0.68
50 0.15
51 0.15
52 0.45
53 0.45
54 0.45
6 -0.68
7 -0.53
8 -0.53
9 -0.53

> <PUBCHEM_EFFECTIVE_ROTOR_COUNT>
5

> <PUBCHEM_PHARMACOPHORE_FEATURES>
16
1 1 acceptor
1 2 acceptor
1 3 acceptor
1 4 acceptor
1 4 donor
1 5 acceptor
1 5 donor
1 6 acceptor
1 6 donor
1 7 donor
1 8 donor
1 9 donor
6 18 21 22 23 26 27 rings
6 2 10 11 12 13 15 rings
6 20 24 25 28 29 30 rings
6 3 14 16 17 18 21 rings

> <PUBCHEM_HEAVY_ATOM_COUNT>
30

> <PUBCHEM_ATOM_DEF_STEREO_COUNT>
7

> <PUBCHEM_ATOM_UDEF_STEREO_COUNT>
0

> <PUBCHEM_BOND_DEF_STEREO_COUNT>
0

> <PUBCHEM_BOND_UDEF_STEREO_COUNT>
0

> <PUBCHEM_ISOTOPIC_ATOM_COUNT>
0

> <PUBCHEM_COMPONENT_COUNT>
1

> <PUBCHEM_CACTVS_TAUTO_COUNT>
18

> <PUBCHEM_CONFORMER_ID>
02A84CA700000001

> <PUBCHEM_MMFF94_ENERGY>
88.4656

> <PUBCHEM_FEATURE_SELFOVERLAP>
81.286

> <PUBCHEM_SHAPE_FINGERPRINT>
10074138 170 18261661623607001928
10305334 12 16831425638480842128
10930396 42 17909229767266642592
11421498 54 17539720274881036268
11646440 116 18340492270277109147
12160290 23 18341344339405152517
12422481 6 18125752091415594817
12553582 1 18122915492875845334
12633257 1 17702107069751027954
12788726 201 18263651825842726896
13004483 165 18192150610342193457
13140716 1 18049438437589286582
13965767 371 17416431915551794542
14866123 147 18118685418140935162
14955137 171 17041494275888037332
15927050 60 18124595272287341349
16752209 62 18408885122464424838
20600515 1 17970617700315657588
21049683 118 17983266297356223409
21344244 78 17836938063188747963
22182313 1 17917996079613685364
22956985 138 17176030007645867155
238918 7 18270135530158692371
24893989 43 14582059160013722208
3027735 51 18411416172994660547
3052486 1 18334584516105531620
3298306 158 17760365496233596020
3380486 145 17767106975811953775
35225 105 18196909176376235273
4058900 60 17835249943541917688
4340502 62 18056766429845356265
469060 322 18113902624649551621
508706 21 18338806627923803214
5104073 3 18268404929570133040
5171179 24 18057051202687031358
5265222 85 18047218292433621110
6004065 56 17984406714869782719
602551 16 18335703819433243704
7226269 152 18336531824260077263
81228 2 18410291449413056548
9981440 41 16553066811363460064

> <PUBCHEM_SHAPE_MULTIPOLES>
564.56
9.21
5.11
1.73
10.78
1.56
-0.27
-2.37
-3.07
-7.94
-0.79
0.8
0.37
1.51

> <PUBCHEM_SHAPE_SELFOVERLAP>
1226.886

> <PUBCHEM_SHAPE_VOLUME>
304.8

> <PUBCHEM_COORDINATE_TYPE>
2
5
10

$$$$
