90478419
  -OEChem-12071808393D

 77 82  0     1  0  0  0  0  0999 V2000
   -3.7353   -1.6624   -1.3439 O   0  0  0  0  0  0  0  0  0  0  0  0
    4.5178   -1.8140   -1.7091 O   0  0  0  0  0  0  0  0  0  0  0  0
   -3.4088    1.1208   -1.3579 O   0  5  0  0  0  0  0  0  0  0  0  0
    7.5483    2.1851    0.0039 O   0  0  0  0  0  0  0  0  0  0  0  0
   -3.5364    1.0613    0.0044 N   0  3  2  0  0  0  0  0  0  0  0  0
   -0.0512   -0.4336    0.8345 C   0  0  2  0  0  0  0  0  0  0  0  0
    2.2907   -0.0066    0.5536 C   0  0  1  0  0  0  0  0  0  0  0  0
    0.6720   -1.7829    0.5854 C   0  0  2  0  0  0  0  0  0  0  0  0
    2.0222   -1.3945   -0.0402 C   0  0  2  0  0  0  0  0  0  0  0  0
   -1.4462   -0.3507    0.1872 C   0  0  1  0  0  0  0  0  0  0  0  0
    3.5563    0.6634   -0.0384 C   0  0  2  0  0  0  0  0  0  0  0  0
    0.9314    0.6626    0.3718 C   0  0  0  0  0  0  0  0  0  0  0  0
   -2.2781   -1.5862    0.5941 C   0  0  1  0  0  0  0  0  0  0  0  0
    4.7440   -0.3252    0.2393 C   0  0  1  0  0  0  0  0  0  0  0  0
   -0.1271   -2.7366   -0.2952 C   0  0  0  0  0  0  0  0  0  0  0  0
    3.1847   -2.3472    0.2251 C   0  0  0  0  0  0  0  0  0  0  0  0
   -3.7476   -1.5031    0.0780 C   0  0  1  0  0  0  0  0  0  0  0  0
   -2.1544    0.9363    0.6109 C   0  0  0  0  0  0  0  0  0  0  0  0
   -1.5651   -2.9047    0.1896 C   0  0  0  0  0  0  0  0  0  0  0  0
   -4.3975   -0.1310    0.4499 C   0  0  2  0  0  0  0  0  0  0  0  0
    4.5125   -1.7620   -0.2873 C   0  0  1  0  0  0  0  0  0  0  0  0
    3.8544    1.9869    0.7182 C   0  0  0  0  0  0  0  0  0  0  0  0
    6.0929    0.2669   -0.1930 C   0  0  0  0  0  0  0  0  0  0  0  0
    3.3737    0.9991   -1.5387 C   0  0  0  0  0  0  0  0  0  0  0  0
   -4.1566    2.3600    0.5095 C   0  0  0  0  0  0  0  0  0  0  0  0
   -5.8366    0.0485   -0.0738 C   0  0  0  0  0  0  0  0  0  0  0  0
    5.2115    2.5918    0.3509 C   0  0  0  0  0  0  0  0  0  0  0  0
    6.3583    1.5966    0.5186 C   0  0  2  0  0  0  0  0  0  0  0  0
   -4.5696   -2.6661    0.6707 C   0  0  0  0  0  0  0  0  0  0  0  0
   -5.6174    2.5766    0.1033 C   0  0  2  0  0  0  0  0  0  0  0  0
   -6.4614    1.3461    0.4350 C   0  0  0  0  0  0  0  0  0  0  0  0
   -5.7813    3.0048   -1.3566 C   0  0  0  0  0  0  0  0  0  0  0  0
   -0.1689   -0.3294    1.9236 H   0  0  0  0  0  0  0  0  0  0  0  0
    2.4537   -0.1213    1.6377 H   0  0  0  0  0  0  0  0  0  0  0  0
    0.8395   -2.2641    1.5589 H   0  0  0  0  0  0  0  0  0  0  0  0
    1.8846   -1.3171   -1.1261 H   0  0  0  0  0  0  0  0  0  0  0  0
   -1.3270   -0.3414   -0.9041 H   0  0  0  0  0  0  0  0  0  0  0  0
    0.7460    0.9247   -0.6754 H   0  0  0  0  0  0  0  0  0  0  0  0
    0.8356    1.5708    0.9749 H   0  0  0  0  0  0  0  0  0  0  0  0
   -2.3303   -1.5843    1.6942 H   0  0  0  0  0  0  0  0  0  0  0  0
    4.8075   -0.4358    1.3344 H   0  0  0  0  0  0  0  0  0  0  0  0
    0.3645   -3.7159   -0.3326 H   0  0  0  0  0  0  0  0  0  0  0  0
   -0.1487   -2.3678   -1.3290 H   0  0  0  0  0  0  0  0  0  0  0  0
    3.2698   -2.5347    1.3027 H   0  0  0  0  0  0  0  0  0  0  0  0
    2.9822   -3.3101   -0.2583 H   0  0  0  0  0  0  0  0  0  0  0  0
   -1.6024    1.8219    0.2756 H   0  0  0  0  0  0  0  0  0  0  0  0
   -2.2808    0.9849    1.6992 H   0  0  0  0  0  0  0  0  0  0  0  0
   -2.1146   -3.4359   -0.5958 H   0  0  0  0  0  0  0  0  0  0  0  0
   -1.5683   -3.5746    1.0596 H   0  0  0  0  0  0  0  0  0  0  0  0
   -4.4154   -0.0508    1.5467 H   0  0  0  0  0  0  0  0  0  0  0  0
    5.3340   -2.4027    0.0552 H   0  0  0  0  0  0  0  0  0  0  0  0
    3.8403    1.8040    1.8009 H   0  0  0  0  0  0  0  0  0  0  0  0
    3.0683    2.7263    0.5222 H   0  0  0  0  0  0  0  0  0  0  0  0
    6.9052   -0.4298    0.0514 H   0  0  0  0  0  0  0  0  0  0  0  0
    6.1482    0.3976   -1.2798 H   0  0  0  0  0  0  0  0  0  0  0  0
    2.6243    1.7872   -1.6739 H   0  0  0  0  0  0  0  0  0  0  0  0
    3.0456    0.1448   -2.1336 H   0  0  0  0  0  0  0  0  0  0  0  0
    4.2944    1.3653   -2.0008 H   0  0  0  0  0  0  0  0  0  0  0  0
   -3.5155    3.1713    0.1448 H   0  0  0  0  0  0  0  0  0  0  0  0
   -4.0811    2.3199    1.6032 H   0  0  0  0  0  0  0  0  0  0  0  0
   -6.4743   -0.7738    0.2650 H   0  0  0  0  0  0  0  0  0  0  0  0
   -5.8534    0.0305   -1.1692 H   0  0  0  0  0  0  0  0  0  0  0  0
    5.1958    2.9754   -0.6765 H   0  0  0  0  0  0  0  0  0  0  0  0
    5.3995    3.4723    0.9783 H   0  0  0  0  0  0  0  0  0  0  0  0
    6.5209    1.4032    1.5860 H   0  0  0  0  0  0  0  0  0  0  0  0
   -5.5635   -2.7258    0.2160 H   0  0  0  0  0  0  0  0  0  0  0  0
   -4.6819   -2.5648    1.7550 H   0  0  0  0  0  0  0  0  0  0  0  0
   -4.1101   -3.6379    0.4639 H   0  0  0  0  0  0  0  0  0  0  0  0
   -5.9978    3.4122    0.7062 H   0  0  0  0  0  0  0  0  0  0  0  0
   -7.4737    1.4541    0.0278 H   0  0  0  0  0  0  0  0  0  0  0  0
   -6.5725    1.2766    1.5251 H   0  0  0  0  0  0  0  0  0  0  0  0
   -3.3233   -0.8739   -1.7338 H   0  0  0  0  0  0  0  0  0  0  0  0
    4.4039   -2.7431   -1.9720 H   0  0  0  0  0  0  0  0  0  0  0  0
   -5.5450    2.2049   -2.0626 H   0  0  0  0  0  0  0  0  0  0  0  0
   -5.1397    3.8624   -1.5845 H   0  0  0  0  0  0  0  0  0  0  0  0
   -6.8168    3.3081   -1.5472 H   0  0  0  0  0  0  0  0  0  0  0  0
    7.7036    3.0110    0.4932 H   0  0  0  0  0  0  0  0  0  0  0  0
  1 17  1  0  0  0  0
  1 72  1  0  0  0  0
  2 21  1  0  0  0  0
  2 73  1  0  0  0  0
  3  5  1  0  0  0  0
  4 28  1  0  0  0  0
  4 77  1  0  0  0  0
  5 18  1  0  0  0  0
  5 20  1  0  0  0  0
  5 25  1  0  0  0  0
  6  8  1  0  0  0  0
  6 10  1  0  0  0  0
  6 12  1  0  0  0  0
  6 33  1  0  0  0  0
  7  9  1  0  0  0  0
  7 11  1  0  0  0  0
  7 12  1  0  0  0  0
  7 34  1  0  0  0  0
  8  9  1  0  0  0  0
  8 15  1  0  0  0  0
  8 35  1  0  0  0  0
  9 16  1  0  0  0  0
  9 36  1  0  0  0  0
 10 13  1  0  0  0  0
 10 18  1  0  0  0  0
 10 37  1  0  0  0  0
 11 14  1  0  0  0  0
 11 22  1  0  0  0  0
 11 24  1  0  0  0  0
 12 38  1  0  0  0  0
 12 39  1  0  0  0  0
 13 17  1  0  0  0  0
 13 19  1  0  0  0  0
 13 40  1  0  0  0  0
 14 21  1  0  0  0  0
 14 23  1  0  0  0  0
 14 41  1  0  0  0  0
 15 19  1  0  0  0  0
 15 42  1  0  0  0  0
 15 43  1  0  0  0  0
 16 21  1  0  0  0  0
 16 44  1  0  0  0  0
 16 45  1  0  0  0  0
 17 20  1  0  0  0  0
 17 29  1  0  0  0  0
 18 46  1  0  0  0  0
 18 47  1  0  0  0  0
 19 48  1  0  0  0  0
 19 49  1  0  0  0  0
 20 26  1  0  0  0  0
 20 50  1  0  0  0  0
 21 51  1  0  0  0  0
 22 27  1  0  0  0  0
 22 52  1  0  0  0  0
 22 53  1  0  0  0  0
 23 28  1  0  0  0  0
 23 54  1  0  0  0  0
 23 55  1  0  0  0  0
 24 56  1  0  0  0  0
 24 57  1  0  0  0  0
 24 58  1  0  0  0  0
 25 30  1  0  0  0  0
 25 59  1  0  0  0  0
 25 60  1  0  0  0  0
 26 31  1  0  0  0  0
 26 61  1  0  0  0  0
 26 62  1  0  0  0  0
 27 28  1  0  0  0  0
 27 63  1  0  0  0  0
 27 64  1  0  0  0  0
 28 65  1  0  0  0  0
 29 66  1  0  0  0  0
 29 67  1  0  0  0  0
 29 68  1  0  0  0  0
 30 31  1  0  0  0  0
 30 32  1  0  0  0  0
 30 69  1  0  0  0  0
 31 70  1  0  0  0  0
 31 71  1  0  0  0  0
 32 74  1  0  0  0  0
 32 75  1  0  0  0  0
 32 76  1  0  0  0  0
M  CHG  2   3  -1   5   1
M  END
> <PUBCHEM_COMPOUND_CID>
90478419

> <PUBCHEM_CONFORMER_RMSD>
0.8

> <PUBCHEM_CONFORMER_DIVERSEORDER>
1
2

> <PUBCHEM_MMFF94_PARTIAL_CHARGES>
14
1 -0.68
17 0.28
18 0.26
2 -0.68
20 0.26
21 0.28
25 0.26
28 0.28
3 -0.75
4 -0.68
5 -0.02
72 0.4
73 0.4
77 0.4

> <PUBCHEM_EFFECTIVE_ROTOR_COUNT>
3

> <PUBCHEM_PHARMACOPHORE_FEATURES>
13
1 1 acceptor
1 1 donor
1 2 acceptor
1 2 donor
1 3 anion
1 4 acceptor
1 4 donor
5 6 7 8 9 12 rings
6 11 14 22 23 27 28 rings
6 5 10 13 17 18 20 rings
6 5 20 25 26 30 31 rings
6 6 8 10 13 15 19 rings
6 7 9 11 14 16 21 rings

> <PUBCHEM_HEAVY_ATOM_COUNT>
32

> <PUBCHEM_ATOM_DEF_STEREO_COUNT>
14

> <PUBCHEM_ATOM_UDEF_STEREO_COUNT>
0

> <PUBCHEM_BOND_DEF_STEREO_COUNT>
0

> <PUBCHEM_BOND_UDEF_STEREO_COUNT>
0

> <PUBCHEM_ISOTOPIC_ATOM_COUNT>
0

> <PUBCHEM_COMPONENT_COUNT>
1

> <PUBCHEM_CACTVS_TAUTO_COUNT>
1

> <PUBCHEM_CONFORMER_ID>
0564975300000001

> <PUBCHEM_MMFF94_ENERGY>
111.2469

> <PUBCHEM_FEATURE_SELFOVERLAP>
66.152

> <PUBCHEM_SHAPE_FINGERPRINT>
10 15 18186804686181922105
10050765 1 18410011031025291594
10411042 1 17689436409902858435
10595046 47 18412541033134535971
10675989 125 18268150842919165434
10835480 77 18413386536275565136
11007060 377 18334581218530367761
12107183 9 18118392961143722482
12403259 415 18409736148785709803
12422481 6 17386289796692979125
12788726 201 17274548632869039552
13073987 5 18333449863187572538
13690498 29 17630877399869946071
13911987 19 17060623308330240271
13944108 23 17765713521187211617
14394314 77 18340773650617827401
144659 39 18131915974500827975
14790565 3 18339645538485179275
15183329 4 18131352981692945145
15196674 1 18411420617726857219
15320467 1 18410573963714746377
15400415 2 18411981394948682898
17844677 252 18409455807722732315
18608769 82 18338801238510441515
20511986 3 18336818723685400696
20715895 44 18411135801808500008
21033648 144 18334005069514834685
21033648 29 17023178267805586437
21236236 1 18411418445021674299
21279426 13 18342182124458236750
21298829 104 18408605881308895644
21304253 335 18334018298135503486
21424621 283 18113900450731071666
21859007 373 17969212339941038820
22393880 68 18411704261741244958
23559900 14 18201433653781570162
23569914 152 17197435330053509308
23569914 2 17761722486941280529
249057 3 18267585710927678862
2747138 104 18042986426823929867
2838139 119 18410005546256212317
3004659 81 18338801113629218498
335352 9 18339364063999403766
34797466 226 18060426797841110343
350125 39 18411419539742527747
4073 2 18260271875622782786
4093350 32 17489592225484043412
4098825 35 18342175570121715810
4144715 1 18261404333660194003
465052 167 8070024480683623848
5080951 261 15647338610571936691
5104073 3 18187365419578921051
513532 50 18272101474476899692
5283173 99 18412262869709174408
9981440 41 18261116296205486019

> <PUBCHEM_SHAPE_MULTIPOLES>
630.09
17.49
3.56
1.04
4.61
0.12
0.36
-12.44
1.01
-1.63
0.17
-0.07
-0.11
1.34

> <PUBCHEM_SHAPE_SELFOVERLAP>
1346.375

> <PUBCHEM_SHAPE_VOLUME>
344.5

> <PUBCHEM_COORDINATE_TYPE>
2
5
10

$$$$
