10072981
  -OEChem-12071808523D

 85 89  0     1  0  0  0  0  0999 V2000
    1.6920   -2.3085   -0.0376 O   0  0  0  0  0  0  0  0  0  0  0  0
    5.1521    0.6275   -0.1934 O   0  0  0  0  0  0  0  0  0  0  0  0
   -7.2196   -1.3067    0.8435 O   0  0  0  0  0  0  0  0  0  0  0  0
   -0.9933    1.0526   -0.4126 C   0  0  1  0  0  0  0  0  0  0  0  0
    0.4418    1.2717    0.2650 C   0  0  1  0  0  0  0  0  0  0  0  0
   -1.5573   -0.3471    0.0838 C   0  0  1  0  0  0  0  0  0  0  0  0
   -3.0739   -0.6620   -0.2893 C   0  0  2  0  0  0  0  0  0  0  0  0
    1.3820    0.1008   -0.1351 C   0  0  1  0  0  0  0  0  0  0  0  0
   -3.9388    0.5558    0.2219 C   0  0  1  0  0  0  0  0  0  0  0  0
    2.7890    0.5614    0.2961 C   0  0  2  0  0  0  0  0  0  0  0  0
   -1.9860    2.1701   -0.0016 C   0  0  0  0  0  0  0  0  0  0  0  0
   -0.5553   -1.5018   -0.1844 C   0  0  0  0  0  0  0  0  0  0  0  0
    1.2917    2.4600   -0.2353 C   0  0  0  0  0  0  0  0  0  0  0  0
    0.8541   -1.2365    0.3794 C   0  0  1  0  0  0  0  0  0  0  0  0
   -3.4470    1.8910   -0.3786 C   0  0  0  0  0  0  0  0  0  0  0  0
    2.7374    2.1016    0.1527 C   0  0  0  0  0  0  0  0  0  0  0  0
   -5.5020    0.3535    0.1989 C   0  0  0  0  0  0  0  0  0  0  0  0
   -3.5339   -1.9288    0.4956 C   0  0  0  0  0  0  0  0  0  0  0  0
   -0.8715    1.1080   -1.9630 C   0  0  0  0  0  0  0  0  0  0  0  0
    0.3366    1.4325    1.8189 C   0  0  0  0  0  0  0  0  0  0  0  0
    3.9276   -0.0279   -0.5452 C   0  0  2  0  0  0  0  0  0  0  0  0
   -3.2460   -0.9619   -1.7969 C   0  0  0  0  0  0  0  0  0  0  0  0
   -5.8378   -0.9670    0.9554 C   0  0  2  0  0  0  0  0  0  0  0  0
   -5.0405   -2.1717    0.4691 C   0  0  0  0  0  0  0  0  0  0  0  0
   -6.1889    1.5192    0.9649 C   0  0  0  0  0  0  0  0  0  0  0  0
   -6.1115    0.3595   -1.2171 C   0  0  0  0  0  0  0  0  0  0  0  0
    3.9753   -1.5588   -0.4000 C   0  0  0  0  0  0  0  0  0  0  0  0
    3.6793    0.3524   -2.0148 C   0  0  0  0  0  0  0  0  0  0  0  0
    5.3453   -2.1076   -0.7525 C   0  0  0  0  0  0  0  0  0  0  0  0
    6.0927   -0.0606    0.6337 C   0  0  0  0  0  0  0  0  0  0  0  0
    6.4569   -1.4429    0.0547 C   0  0  0  0  0  0  0  0  0  0  0  0
    7.3510    0.8249    0.6386 C   0  0  0  0  0  0  0  0  0  0  0  0
    5.5983   -0.1527    2.0853 C   0  0  0  0  0  0  0  0  0  0  0  0
   -1.5944   -0.2805    1.1783 H   0  0  0  0  0  0  0  0  0  0  0  0
    1.3779    0.0232   -1.2220 H   0  0  0  0  0  0  0  0  0  0  0  0
   -3.7048    0.6352    1.2975 H   0  0  0  0  0  0  0  0  0  0  0  0
    2.9559    0.3216    1.3519 H   0  0  0  0  0  0  0  0  0  0  0  0
   -1.6782    3.1280   -0.4393 H   0  0  0  0  0  0  0  0  0  0  0  0
   -1.9732    2.3155    1.0831 H   0  0  0  0  0  0  0  0  0  0  0  0
   -0.9148   -2.4343    0.2642 H   0  0  0  0  0  0  0  0  0  0  0  0
   -0.4746   -1.7138   -1.2561 H   0  0  0  0  0  0  0  0  0  0  0  0
    0.9829    3.4191    0.1933 H   0  0  0  0  0  0  0  0  0  0  0  0
    1.2655    2.5670   -1.3223 H   0  0  0  0  0  0  0  0  0  0  0  0
    0.8339   -1.2503    1.4742 H   0  0  0  0  0  0  0  0  0  0  0  0
   -4.0339    2.7267    0.0151 H   0  0  0  0  0  0  0  0  0  0  0  0
   -3.5825    1.9197   -1.4625 H   0  0  0  0  0  0  0  0  0  0  0  0
    3.4588    2.5579   -0.5294 H   0  0  0  0  0  0  0  0  0  0  0  0
    2.9640    2.5460    1.1311 H   0  0  0  0  0  0  0  0  0  0  0  0
   -3.2225   -1.8444    1.5452 H   0  0  0  0  0  0  0  0  0  0  0  0
   -3.0431   -2.8248    0.0975 H   0  0  0  0  0  0  0  0  0  0  0  0
   -0.2980    0.2792   -2.3828 H   0  0  0  0  0  0  0  0  0  0  0  0
   -1.8372    1.0965   -2.4650 H   0  0  0  0  0  0  0  0  0  0  0  0
   -0.4131    2.0405   -2.3023 H   0  0  0  0  0  0  0  0  0  0  0  0
   -0.1226    2.3904    2.0849 H   0  0  0  0  0  0  0  0  0  0  0  0
   -0.2409    0.6436    2.3027 H   0  0  0  0  0  0  0  0  0  0  0  0
    1.3107    1.4275    2.3166 H   0  0  0  0  0  0  0  0  0  0  0  0
   -2.3439   -1.3906   -2.2399 H   0  0  0  0  0  0  0  0  0  0  0  0
   -4.0304   -1.6968   -1.9947 H   0  0  0  0  0  0  0  0  0  0  0  0
   -3.5129   -0.0786   -2.3788 H   0  0  0  0  0  0  0  0  0  0  0  0
   -5.6309   -0.8239    2.0244 H   0  0  0  0  0  0  0  0  0  0  0  0
   -5.3785   -2.4749   -0.5279 H   0  0  0  0  0  0  0  0  0  0  0  0
   -5.2694   -3.0353    1.1077 H   0  0  0  0  0  0  0  0  0  0  0  0
   -5.7396    1.6639    1.9537 H   0  0  0  0  0  0  0  0  0  0  0  0
   -7.2561    1.3195    1.1169 H   0  0  0  0  0  0  0  0  0  0  0  0
   -6.1228    2.4655    0.4187 H   0  0  0  0  0  0  0  0  0  0  0  0
   -5.7886    1.2335   -1.7913 H   0  0  0  0  0  0  0  0  0  0  0  0
   -7.2068    0.3977   -1.1738 H   0  0  0  0  0  0  0  0  0  0  0  0
   -5.8614   -0.5337   -1.7904 H   0  0  0  0  0  0  0  0  0  0  0  0
    3.3354   -2.0242   -1.1515 H   0  0  0  0  0  0  0  0  0  0  0  0
    3.7553   -1.8849    0.6197 H   0  0  0  0  0  0  0  0  0  0  0  0
    1.3220   -3.1309    0.3258 H   0  0  0  0  0  0  0  0  0  0  0  0
    2.8860   -0.2283   -2.4944 H   0  0  0  0  0  0  0  0  0  0  0  0
    3.4853    1.4116   -2.1943 H   0  0  0  0  0  0  0  0  0  0  0  0
    4.5883    0.1457   -2.5961 H   0  0  0  0  0  0  0  0  0  0  0  0
    5.3730   -3.1932   -0.6027 H   0  0  0  0  0  0  0  0  0  0  0  0
    5.5395   -1.9444   -1.8202 H   0  0  0  0  0  0  0  0  0  0  0  0
   -7.3763   -2.0946    1.3915 H   0  0  0  0  0  0  0  0  0  0  0  0
    6.7762   -2.1109    0.8650 H   0  0  0  0  0  0  0  0  0  0  0  0
    7.3289   -1.3624   -0.6081 H   0  0  0  0  0  0  0  0  0  0  0  0
    7.1274    1.8188    1.0440 H   0  0  0  0  0  0  0  0  0  0  0  0
    8.1581    0.3814    1.2314 H   0  0  0  0  0  0  0  0  0  0  0  0
    7.7180    0.9869   -0.3818 H   0  0  0  0  0  0  0  0  0  0  0  0
    4.7586   -0.8411    2.2001 H   0  0  0  0  0  0  0  0  0  0  0  0
    6.3925   -0.5015    2.7548 H   0  0  0  0  0  0  0  0  0  0  0  0
    5.2534    0.8253    2.4401 H   0  0  0  0  0  0  0  0  0  0  0  0
  1 14  1  0  0  0  0
  1 71  1  0  0  0  0
  2 21  1  0  0  0  0
  2 30  1  0  0  0  0
  3 23  1  0  0  0  0
  3 77  1  0  0  0  0
  4  5  1  0  0  0  0
  4  6  1  0  0  0  0
  4 11  1  0  0  0  0
  4 19  1  0  0  0  0
  5  8  1  0  0  0  0
  5 13  1  0  0  0  0
  5 20  1  0  0  0  0
  6  7  1  0  0  0  0
  6 12  1  0  0  0  0
  6 34  1  0  0  0  0
  7  9  1  0  0  0  0
  7 18  1  0  0  0  0
  7 22  1  0  0  0  0
  8 10  1  0  0  0  0
  8 14  1  0  0  0  0
  8 35  1  0  0  0  0
  9 15  1  0  0  0  0
  9 17  1  0  0  0  0
  9 36  1  0  0  0  0
 10 16  1  0  0  0  0
 10 21  1  0  0  0  0
 10 37  1  0  0  0  0
 11 15  1  0  0  0  0
 11 38  1  0  0  0  0
 11 39  1  0  0  0  0
 12 14  1  0  0  0  0
 12 40  1  0  0  0  0
 12 41  1  0  0  0  0
 13 16  1  0  0  0  0
 13 42  1  0  0  0  0
 13 43  1  0  0  0  0
 14 44  1  0  0  0  0
 15 45  1  0  0  0  0
 15 46  1  0  0  0  0
 16 47  1  0  0  0  0
 16 48  1  0  0  0  0
 17 23  1  0  0  0  0
 17 25  1  0  0  0  0
 17 26  1  0  0  0  0
 18 24  1  0  0  0  0
 18 49  1  0  0  0  0
 18 50  1  0  0  0  0
 19 51  1  0  0  0  0
 19 52  1  0  0  0  0
 19 53  1  0  0  0  0
 20 54  1  0  0  0  0
 20 55  1  0  0  0  0
 20 56  1  0  0  0  0
 21 27  1  0  0  0  0
 21 28  1  0  0  0  0
 22 57  1  0  0  0  0
 22 58  1  0  0  0  0
 22 59  1  0  0  0  0
 23 24  1  0  0  0  0
 23 60  1  0  0  0  0
 24 61  1  0  0  0  0
 24 62  1  0  0  0  0
 25 63  1  0  0  0  0
 25 64  1  0  0  0  0
 25 65  1  0  0  0  0
 26 66  1  0  0  0  0
 26 67  1  0  0  0  0
 26 68  1  0  0  0  0
 27 29  1  0  0  0  0
 27 69  1  0  0  0  0
 27 70  1  0  0  0  0
 28 72  1  0  0  0  0
 28 73  1  0  0  0  0
 28 74  1  0  0  0  0
 29 31  1  0  0  0  0
 29 75  1  0  0  0  0
 29 76  1  0  0  0  0
 30 31  1  0  0  0  0
 30 32  1  0  0  0  0
 30 33  1  0  0  0  0
 31 78  1  0  0  0  0
 31 79  1  0  0  0  0
 32 80  1  0  0  0  0
 32 81  1  0  0  0  0
 32 82  1  0  0  0  0
 33 83  1  0  0  0  0
 33 84  1  0  0  0  0
 33 85  1  0  0  0  0
M  END
> <PUBCHEM_COMPOUND_CID>
10072981

> <PUBCHEM_CONFORMER_RMSD>
0.8

> <PUBCHEM_CONFORMER_DIVERSEORDER>
5
3
2
7
10
6
9
4
8
1

> <PUBCHEM_MMFF94_PARTIAL_CHARGES>
9
1 -0.68
14 0.28
2 -0.56
21 0.28
23 0.28
3 -0.68
30 0.28
71 0.4
77 0.4

> <PUBCHEM_EFFECTIVE_ROTOR_COUNT>
4.4

> <PUBCHEM_PHARMACOPHORE_FEATURES>
12
1 1 acceptor
1 1 donor
1 2 acceptor
1 3 acceptor
1 3 donor
3 17 25 26 hydrophobe
3 30 32 33 hydrophobe
5 5 8 10 13 16 rings
6 2 21 27 29 30 31 rings
6 4 5 6 8 12 14 rings
6 4 6 7 9 11 15 rings
6 7 9 17 18 23 24 rings

> <PUBCHEM_HEAVY_ATOM_COUNT>
33

> <PUBCHEM_ATOM_DEF_STEREO_COUNT>
8

> <PUBCHEM_ATOM_UDEF_STEREO_COUNT>
2

> <PUBCHEM_BOND_DEF_STEREO_COUNT>
0

> <PUBCHEM_BOND_UDEF_STEREO_COUNT>
0

> <PUBCHEM_ISOTOPIC_ATOM_COUNT>
0

> <PUBCHEM_COMPONENT_COUNT>
1

> <PUBCHEM_CACTVS_TAUTO_COUNT>
1

> <PUBCHEM_CONFORMER_ID>
0099B39500000005

> <PUBCHEM_MMFF94_ENERGY>
184.9388

> <PUBCHEM_FEATURE_SELFOVERLAP>
60.976

> <PUBCHEM_SHAPE_FINGERPRINT>
10 15 18412257368388831256
10290309 65 18339075969534435710
10670039 82 11891319938260298558
11578080 2 16986858276420513330
11646440 116 18059859475795669872
11719270 70 18410290298578540546
11963148 33 18187640310387403066
11991303 11 13335032624048630376
12166972 35 17095245834551971044
12236239 1 17704069573209871837
12422481 6 18272937124055667871
12516196 113 18130787858390834032
12596602 18 14189577442212240983
12788726 201 17703525319618771432
13140716 1 18194117653697585730
13402501 40 18409450280063048266
13533116 47 17632014153243456534
13583140 156 14261346981431169799
13685833 64 18410295821636743370
13782708 43 18040154023965399363
13811026 1 18411133624376482570
14251764 18 18342176686902870556
14341114 176 18411425007446787877
14394314 77 18272093738835442577
14840074 17 16200431373298845436
14849402 71 18269838782110076632
14856354 85 17895202129701606735
14955137 171 18272651246843175184
15064986 96 17845666850385270991
15131766 46 15480668053965135968
15183329 4 18333452036271575701
15849732 13 16630524042068961917
15927050 60 17765716115573850452
17349148 13 17385448704462146502
17909252 39 17914068507936330694
1813 80 17385444340923255709
18335252 98 18410860967025490538
18608769 82 18411699898602767178
1979834 28 17704079477884849270
20028762 73 18342457083743355911
21033648 29 17560785620161566971
21130935 74 18272654515134283506
21267235 1 18410300198182115542
21279426 13 18339083687890437479
21623969 137 17989209226750649182
21781051 124 17896056458135448259
22149856 69 18269572584278381121
23522609 53 17898038834877846653
23559900 14 18409724097566776921
23569914 152 12400736856410408827
24771293 8 18058433474472767296
3004659 81 18113904858037287134
3178227 256 18410582807267634579
335352 9 18410293614413982581
3383291 50 18409731790048766619
350125 39 18410012143437086532
3633792 109 18339632353542521477
3680242 22 18261393304447551738
394071 54 16200151023819870544
4073 2 18187651369990551634
4093350 32 16988849350160085454
5104073 3 18271803459407143082
59755656 215 18334572404318920654
59755656 520 15791452643159171395
6081469 158 18040994064767702191

> <PUBCHEM_SHAPE_MULTIPOLES>
661.52
17.7
2.4
1.41
2.81
0.06
0.19
4.32
-3.76
-0.46
-0.07
0.28
-0.15
0.71

> <PUBCHEM_SHAPE_SELFOVERLAP>
1397.388

> <PUBCHEM_SHAPE_VOLUME>
370.6

> <PUBCHEM_COORDINATE_TYPE>
2
5
10

$$$$
