643508
  -OEChem-12071808473D

 22 22  0     1  0  0  0  0  0999 V2000
    1.8855   -0.2209   -0.2542 O   0  0  0  0  0  0  0  0  0  0  0  0
   -3.4956    0.6012    0.4681 O   0  0  0  0  0  0  0  0  0  0  0  0
    0.5577    1.5770    0.3298 O   0  0  0  0  0  0  0  0  0  0  0  0
   -1.5456    0.5300   -0.8258 N   0  0  0  0  0  0  0  0  0  0  0  0
   -0.3575   -0.2718   -0.9054 C   0  0  2  0  0  0  0  0  0  0  0  0
   -0.7374   -1.5532   -0.1882 C   0  0  0  0  0  0  0  0  0  0  0  0
   -1.8199   -1.1251    0.8023 C   0  0  0  0  0  0  0  0  0  0  0  0
   -2.4321    0.0910    0.1515 C   0  0  0  0  0  0  0  0  0  0  0  0
    0.7217    0.4875   -0.2022 C   0  0  0  0  0  0  0  0  0  0  0  0
    3.0088    0.3943    0.3842 C   0  0  0  0  0  0  0  0  0  0  0  0
    4.2143   -0.5100    0.2400 C   0  0  0  0  0  0  0  0  0  0  0  0
   -0.0896   -0.4175   -1.9556 H   0  0  0  0  0  0  0  0  0  0  0  0
    0.0945   -2.0607    0.3093 H   0  0  0  0  0  0  0  0  0  0  0  0
   -1.1743   -2.2576   -0.9075 H   0  0  0  0  0  0  0  0  0  0  0  0
   -1.3878   -0.8299    1.7635 H   0  0  0  0  0  0  0  0  0  0  0  0
   -2.5671   -1.9084    0.9509 H   0  0  0  0  0  0  0  0  0  0  0  0
   -1.7082    1.3568   -1.3922 H   0  0  0  0  0  0  0  0  0  0  0  0
    3.2129    1.3616   -0.0883 H   0  0  0  0  0  0  0  0  0  0  0  0
    2.7862    0.5479    1.4460 H   0  0  0  0  0  0  0  0  0  0  0  0
    5.0934   -0.0693    0.7184 H   0  0  0  0  0  0  0  0  0  0  0  0
    4.0185   -1.4880    0.6920 H   0  0  0  0  0  0  0  0  0  0  0  0
    4.4386   -0.6876   -0.8170 H   0  0  0  0  0  0  0  0  0  0  0  0
  1  9  1  0  0  0  0
  1 10  1  0  0  0  0
  2  8  2  0  0  0  0
  3  9  2  0  0  0  0
  4  5  1  0  0  0  0
  4  8  1  0  0  0  0
  4 17  1  0  0  0  0
  5  6  1  0  0  0  0
  5  9  1  0  0  0  0
  5 12  1  0  0  0  0
  6  7  1  0  0  0  0
  6 13  1  0  0  0  0
  6 14  1  0  0  0  0
  7  8  1  0  0  0  0
  7 15  1  0  0  0  0
  7 16  1  0  0  0  0
 10 11  1  0  0  0  0
 10 18  1  0  0  0  0
 10 19  1  0  0  0  0
 11 20  1  0  0  0  0
 11 21  1  0  0  0  0
 11 22  1  0  0  0  0
M  END
> <PUBCHEM_COMPOUND_CID>
643508

> <PUBCHEM_CONFORMER_RMSD>
0.6

> <PUBCHEM_CONFORMER_DIVERSEORDER>
1
11
17
13
3
5
16
6
7
10
2
23
14
12
20
22
8
15
21
19
4
9
18

> <PUBCHEM_MMFF94_PARTIAL_CHARGES>
10
1 -0.43
10 0.28
17 0.37
2 -0.57
3 -0.57
4 -0.73
5 0.36
7 0.06
8 0.57
9 0.66

> <PUBCHEM_EFFECTIVE_ROTOR_COUNT>
3.8

> <PUBCHEM_PHARMACOPHORE_FEATURES>
4
1 2 acceptor
1 3 acceptor
1 4 donor
5 4 5 6 7 8 rings

> <PUBCHEM_HEAVY_ATOM_COUNT>
11

> <PUBCHEM_ATOM_DEF_STEREO_COUNT>
1

> <PUBCHEM_ATOM_UDEF_STEREO_COUNT>
0

> <PUBCHEM_BOND_DEF_STEREO_COUNT>
0

> <PUBCHEM_BOND_UDEF_STEREO_COUNT>
0

> <PUBCHEM_ISOTOPIC_ATOM_COUNT>
0

> <PUBCHEM_COMPONENT_COUNT>
1

> <PUBCHEM_CACTVS_TAUTO_COUNT>
3

> <PUBCHEM_CONFORMER_ID>
0009D1B400000001

> <PUBCHEM_MMFF94_ENERGY>
15.9789

> <PUBCHEM_FEATURE_SELFOVERLAP>
20.297

> <PUBCHEM_SHAPE_FINGERPRINT>
10130415 120 18411135836036557920
11062470 55 16558749009787041872
124424 183 18409164411271087528
12897270 3 8790613584594261619
12932764 1 17022888078319204108
13024252 1 15357691990017760687
14577589 140 18335138704336250798
15310529 11 16153696597031423186
16945 1 17967818232142494423
18511873 20 18409731767897858496
20281407 28 17531242881100594178
20645464 45 18272654553809600974
207724 885 18409167731344299344
20871999 31 10087351163650531865
21501502 16 18193841676178540325
23235685 24 18343016675147506033
23402539 116 18131063845174696485
369184 2 16845291682660794831
57812782 119 11743839166476576290

> <PUBCHEM_SHAPE_MULTIPOLES>
203.79
5.68
1.25
0.84
4.42
0.14
0.05
0.14
-1.26
-0.28
-0.1
-0.21
0.04
0.11

> <PUBCHEM_SHAPE_SELFOVERLAP>
408.164

> <PUBCHEM_SHAPE_VOLUME>
121.8

> <PUBCHEM_COORDINATE_TYPE>
2
5
10

$$$$
