636741
  -OEChem-12071808473D

 80 83  0     1  0  0  0  0  0999 V2000
    6.8454   -0.0561   -1.3798 O   0  0  0  0  0  0  0  0  0  0  0  0
   -0.1973    0.1815   -0.7780 C   0  0  1  0  0  0  0  0  0  0  0  0
    0.2645   -0.7927    0.3245 C   0  0  2  0  0  0  0  0  0  0  0  0
    1.7804   -0.8900    0.5399 C   0  0  2  0  0  0  0  0  0  0  0  0
    2.5067    0.4232    0.1404 C   0  0  2  0  0  0  0  0  0  0  0  0
   -1.7342    0.0003   -0.6271 C   0  0  2  0  0  0  0  0  0  0  0  0
    0.3031    1.6071   -0.4423 C   0  0  0  0  0  0  0  0  0  0  0  0
    3.9526    0.4668    0.7570 C   0  0  1  0  0  0  0  0  0  0  0  0
   -0.5630   -2.0525    0.0933 C   0  0  0  0  0  0  0  0  0  0  0  0
    1.6003    1.6395    0.4020 C   0  0  0  0  0  0  0  0  0  0  0  0
   -1.9149   -1.5217   -0.4191 C   0  0  0  0  0  0  0  0  0  0  0  0
    2.5031   -2.0755   -0.1008 C   0  0  0  0  0  0  0  0  0  0  0  0
   -2.6008    0.5530   -1.7500 C   0  0  1  0  0  0  0  0  0  0  0  0
    0.2529   -0.2197   -2.2041 C   0  0  0  0  0  0  0  0  0  0  0  0
    4.6476   -0.8881    0.5269 C   0  0  0  0  0  0  0  0  0  0  0  0
    4.7639    1.5796    0.0293 C   0  0  0  0  0  0  0  0  0  0  0  0
    3.9896   -1.9910    0.1145 C   0  0  0  0  0  0  0  0  0  0  0  0
    3.9098    0.7738    2.2708 C   0  0  0  0  0  0  0  0  0  0  0  0
    6.1430   -0.9371    0.7607 C   0  0  0  0  0  0  0  0  0  0  0  0
   -4.0894    0.2720   -1.4554 C   0  0  0  0  0  0  0  0  0  0  0  0
    6.2688    1.5508    0.3153 C   0  0  0  0  0  0  0  0  0  0  0  0
    6.8792    0.1826    0.0263 C   0  0  2  0  0  0  0  0  0  0  0  0
   -2.3243    2.0481   -1.9404 C   0  0  0  0  0  0  0  0  0  0  0  0
   -4.6283    0.7979   -0.1148 C   0  0  0  0  0  0  0  0  0  0  0  0
   -6.0976    0.4356    0.2248 C   0  0  1  0  0  0  0  0  0  0  0  0
   -6.3757   -1.0914    0.0491 C   0  0  0  0  0  0  0  0  0  0  0  0
   -6.4794    0.9706    1.6273 C   0  0  0  0  0  0  0  0  0  0  0  0
   -7.8429   -1.4489    0.3194 C   0  0  0  0  0  0  0  0  0  0  0  0
   -5.4652   -1.9904    0.8899 C   0  0  0  0  0  0  0  0  0  0  0  0
   -6.2977    2.4727    1.8005 C   0  0  0  0  0  0  0  0  0  0  0  0
   -0.1122   -0.3790    1.2774 H   0  0  0  0  0  0  0  0  0  0  0  0
    1.8917   -1.0294    1.6248 H   0  0  0  0  0  0  0  0  0  0  0  0
    2.6629    0.4028   -0.9456 H   0  0  0  0  0  0  0  0  0  0  0  0
   -2.0067    0.4942    0.3149 H   0  0  0  0  0  0  0  0  0  0  0  0
   -0.4504    2.1740    0.1158 H   0  0  0  0  0  0  0  0  0  0  0  0
    0.4983    2.1708   -1.3618 H   0  0  0  0  0  0  0  0  0  0  0  0
   -0.6797   -2.6372    1.0116 H   0  0  0  0  0  0  0  0  0  0  0  0
   -0.1154   -2.7066   -0.6621 H   0  0  0  0  0  0  0  0  0  0  0  0
    2.1239    2.5784    0.1940 H   0  0  0  0  0  0  0  0  0  0  0  0
    1.3235    1.6678    1.4634 H   0  0  0  0  0  0  0  0  0  0  0  0
   -2.1934   -2.0452   -1.3401 H   0  0  0  0  0  0  0  0  0  0  0  0
   -2.6684   -1.7295    0.3315 H   0  0  0  0  0  0  0  0  0  0  0  0
    2.3055   -2.1332   -1.1762 H   0  0  0  0  0  0  0  0  0  0  0  0
    2.1407   -3.0082    0.3472 H   0  0  0  0  0  0  0  0  0  0  0  0
   -2.3721    0.0487   -2.6971 H   0  0  0  0  0  0  0  0  0  0  0  0
   -0.1466   -1.1931   -2.5068 H   0  0  0  0  0  0  0  0  0  0  0  0
   -0.0747    0.5057   -2.9548 H   0  0  0  0  0  0  0  0  0  0  0  0
    1.3363   -0.2872   -2.3056 H   0  0  0  0  0  0  0  0  0  0  0  0
    4.3827    2.5703    0.3047 H   0  0  0  0  0  0  0  0  0  0  0  0
    4.6236    1.4903   -1.0565 H   0  0  0  0  0  0  0  0  0  0  0  0
    4.5429   -2.9101   -0.0633 H   0  0  0  0  0  0  0  0  0  0  0  0
    4.9094    0.7936    2.7173 H   0  0  0  0  0  0  0  0  0  0  0  0
    3.4598    1.7530    2.4662 H   0  0  0  0  0  0  0  0  0  0  0  0
    3.3361    0.0266    2.8277 H   0  0  0  0  0  0  0  0  0  0  0  0
    6.3334   -0.8554    1.8374 H   0  0  0  0  0  0  0  0  0  0  0  0
    6.5496   -1.9049    0.4415 H   0  0  0  0  0  0  0  0  0  0  0  0
   -4.6973    0.6988   -2.2639 H   0  0  0  0  0  0  0  0  0  0  0  0
   -4.2354   -0.8100   -1.5208 H   0  0  0  0  0  0  0  0  0  0  0  0
    6.7530    2.3103   -0.3106 H   0  0  0  0  0  0  0  0  0  0  0  0
    6.4559    1.8280    1.3588 H   0  0  0  0  0  0  0  0  0  0  0  0
    7.9334    0.1887    0.3255 H   0  0  0  0  0  0  0  0  0  0  0  0
   -1.3695    2.2408   -2.4303 H   0  0  0  0  0  0  0  0  0  0  0  0
   -2.3707    2.6023   -0.9983 H   0  0  0  0  0  0  0  0  0  0  0  0
   -3.0848    2.4827   -2.6005 H   0  0  0  0  0  0  0  0  0  0  0  0
   -4.5391    1.8902   -0.1423 H   0  0  0  0  0  0  0  0  0  0  0  0
   -4.0018    0.4702    0.7182 H   0  0  0  0  0  0  0  0  0  0  0  0
   -6.7321    0.9582   -0.5053 H   0  0  0  0  0  0  0  0  0  0  0  0
    7.2576   -0.9220   -1.5404 H   0  0  0  0  0  0  0  0  0  0  0  0
   -6.2041   -1.3376   -1.0055 H   0  0  0  0  0  0  0  0  0  0  0  0
   -7.5338    0.7504    1.8259 H   0  0  0  0  0  0  0  0  0  0  0  0
   -5.8975    0.4527    2.3987 H   0  0  0  0  0  0  0  0  0  0  0  0
   -8.5143   -0.7998   -0.2522 H   0  0  0  0  0  0  0  0  0  0  0  0
   -8.1004   -1.3654    1.3797 H   0  0  0  0  0  0  0  0  0  0  0  0
   -8.0430   -2.4828    0.0164 H   0  0  0  0  0  0  0  0  0  0  0  0
   -5.4337   -3.0018    0.4714 H   0  0  0  0  0  0  0  0  0  0  0  0
   -5.8406   -2.0731    1.9164 H   0  0  0  0  0  0  0  0  0  0  0  0
   -4.4542   -1.6174    0.9662 H   0  0  0  0  0  0  0  0  0  0  0  0
   -5.2405    2.7531    1.8098 H   0  0  0  0  0  0  0  0  0  0  0  0
   -6.7269    2.7932    2.7556 H   0  0  0  0  0  0  0  0  0  0  0  0
   -6.8010    3.0254    1.0012 H   0  0  0  0  0  0  0  0  0  0  0  0
  1 22  1  0  0  0  0
  1 68  1  0  0  0  0
  2  3  1  0  0  0  0
  2  6  1  0  0  0  0
  2  7  1  0  0  0  0
  2 14  1  0  0  0  0
  3  4  1  0  0  0  0
  3  9  1  0  0  0  0
  3 31  1  0  0  0  0
  4  5  1  0  0  0  0
  4 12  1  0  0  0  0
  4 32  1  0  0  0  0
  5  8  1  0  0  0  0
  5 10  1  0  0  0  0
  5 33  1  0  0  0  0
  6 11  1  0  0  0  0
  6 13  1  0  0  0  0
  6 34  1  0  0  0  0
  7 10  1  0  0  0  0
  7 35  1  0  0  0  0
  7 36  1  0  0  0  0
  8 15  1  0  0  0  0
  8 16  1  0  0  0  0
  8 18  1  0  0  0  0
  9 11  1  0  0  0  0
  9 37  1  0  0  0  0
  9 38  1  0  0  0  0
 10 39  1  0  0  0  0
 10 40  1  0  0  0  0
 11 41  1  0  0  0  0
 11 42  1  0  0  0  0
 12 17  1  0  0  0  0
 12 43  1  0  0  0  0
 12 44  1  0  0  0  0
 13 20  1  0  0  0  0
 13 23  1  0  0  0  0
 13 45  1  0  0  0  0
 14 46  1  0  0  0  0
 14 47  1  0  0  0  0
 14 48  1  0  0  0  0
 15 17  2  0  0  0  0
 15 19  1  0  0  0  0
 16 21  1  0  0  0  0
 16 49  1  0  0  0  0
 16 50  1  0  0  0  0
 17 51  1  0  0  0  0
 18 52  1  0  0  0  0
 18 53  1  0  0  0  0
 18 54  1  0  0  0  0
 19 22  1  0  0  0  0
 19 55  1  0  0  0  0
 19 56  1  0  0  0  0
 20 24  1  0  0  0  0
 20 57  1  0  0  0  0
 20 58  1  0  0  0  0
 21 22  1  0  0  0  0
 21 59  1  0  0  0  0
 21 60  1  0  0  0  0
 22 61  1  0  0  0  0
 23 62  1  0  0  0  0
 23 63  1  0  0  0  0
 23 64  1  0  0  0  0
 24 25  1  0  0  0  0
 24 65  1  0  0  0  0
 24 66  1  0  0  0  0
 25 26  1  0  0  0  0
 25 27  1  0  0  0  0
 25 67  1  0  0  0  0
 26 28  1  0  0  0  0
 26 29  1  0  0  0  0
 26 69  1  0  0  0  0
 27 30  1  0  0  0  0
 27 70  1  0  0  0  0
 27 71  1  0  0  0  0
 28 72  1  0  0  0  0
 28 73  1  0  0  0  0
 28 74  1  0  0  0  0
 29 75  1  0  0  0  0
 29 76  1  0  0  0  0
 29 77  1  0  0  0  0
 30 78  1  0  0  0  0
 30 79  1  0  0  0  0
 30 80  1  0  0  0  0
M  END
> <PUBCHEM_COMPOUND_CID>
636741

> <PUBCHEM_CONFORMER_RMSD>
1

> <PUBCHEM_CONFORMER_DIVERSEORDER>
6
3
9
8
1
5
2
4
7

> <PUBCHEM_MMFF94_PARTIAL_CHARGES>
9
1 -0.68
12 0.14
15 -0.28
17 -0.29
19 0.14
22 0.28
51 0.15
68 0.4
8 0.14

> <PUBCHEM_EFFECTIVE_ROTOR_COUNT>
8

> <PUBCHEM_PHARMACOPHORE_FEATURES>
10
1 1 acceptor
1 1 donor
1 23 hydrophobe
1 30 hydrophobe
3 26 28 29 hydrophobe
5 2 3 6 9 11 rings
6 13 20 24 25 26 27 hydrophobe
6 2 3 4 5 7 10 rings
6 4 5 8 12 15 17 rings
6 8 15 16 19 21 22 rings

> <PUBCHEM_HEAVY_ATOM_COUNT>
30

> <PUBCHEM_ATOM_DEF_STEREO_COUNT>
9

> <PUBCHEM_ATOM_UDEF_STEREO_COUNT>
0

> <PUBCHEM_BOND_DEF_STEREO_COUNT>
0

> <PUBCHEM_BOND_UDEF_STEREO_COUNT>
0

> <PUBCHEM_ISOTOPIC_ATOM_COUNT>
0

> <PUBCHEM_COMPONENT_COUNT>
1

> <PUBCHEM_CACTVS_TAUTO_COUNT>
1

> <PUBCHEM_CONFORMER_ID>
0009B74500000006

> <PUBCHEM_MMFF94_ENERGY>
102.5427

> <PUBCHEM_FEATURE_SELFOVERLAP>
50.874

> <PUBCHEM_SHAPE_FINGERPRINT>
10 15 17821444664204715681
10100884 174 18193271030615740803
10670039 82 13038912106118516803
10674148 151 17275386500465096004
10906281 52 18342183271462385822
11315181 36 18410856569453538243
11456790 92 17988067925655625298
11578080 2 17415259909650564792
11991303 11 15626214754535155845
12236239 1 17775281659906807473
12596602 18 18343866602537354243
12730499 353 18335697231243607506
12788726 201 17060342877083337384
13782708 43 17459742627884355386
13914758 101 12103575173117831694
14251752 14 14476962285247796918
14251764 18 18335421283446532699
14849402 71 18340490079200892233
14856354 85 17417806288512683935
14955137 171 18261393385714384933
15142383 8 14045738215092453584
15183329 4 10664103337863640565
15352257 5 18260266347741416155
15461852 350 17131825470592443533
1813 80 16732979821347871487
18335252 98 17966968327240475994
18608769 82 18334009523169359122
19377110 9 16226041189368905162
21033648 29 18190720012597162653
21130935 74 18410292480548618819
21267235 1 18409446965049597510
21521721 280 18408885161752048768
21623969 137 18408321081531502150
21756936 100 17775560936683163005
21781051 124 18333452032969054658
21792961 116 18334013857688211618
21796203 349 17024906760557597821
21859007 373 11671787031289918946
22122407 14 17918000498702464841
22149856 69 18334864887803180913
23522609 53 18263947542741671973
23559900 14 18339347661703858112
23569943 247 17488743351053164070
2747138 104 17676492756628838017
2838139 119 15841547471026482881
3009799 131 10015867586979061967
312425 54 18336552616998617275
3383291 50 17240775025485130283
350125 39 18334293192757969342
3663271 9 18413390913131823451
392239 28 18187365424585914097
4093350 32 17203609316125616052
4325135 7 17167861984744361686
4340502 62 18333730217578362006
4938544 92 18263082133582396333
5104073 3 18116420449772358752
59755656 520 18130783477851525727
6004065 56 11530776906973915870
6086070 43 16916482806419333585

> <PUBCHEM_SHAPE_MULTIPOLES>
611.52
19.98
2.26
1.65
9.46
0.06
-0.19
-0.65
6.63
1.22
0.37
1.04
-0.72
-0.25

> <PUBCHEM_SHAPE_SELFOVERLAP>
1259.856

> <PUBCHEM_SHAPE_VOLUME>
351.2

> <PUBCHEM_COORDINATE_TYPE>
2
5
10

$$$$
