6326198
  -OEChem-12071808403D

 39 40  0     1  0  0  0  0  0999 V2000
    1.4489   -0.5651   -0.3227 C   0  0  2  0  0  0  0  0  0  0  0  0
   -0.6489    0.2577    0.8327 C   0  0  1  0  0  0  0  0  0  0  0  0
   -1.5889   -0.3595   -0.2530 C   0  0  1  0  0  0  0  0  0  0  0  0
    1.8983    0.9164   -0.6136 C   0  0  1  0  0  0  0  0  0  0  0  0
    0.5568   -1.1414   -1.4665 C   0  0  0  0  0  0  0  0  0  0  0  0
    0.6149   -0.5750    0.9551 C   0  0  0  0  0  0  0  0  0  0  0  0
   -0.8597   -0.5692   -1.6013 C   0  0  0  0  0  0  0  0  0  0  0  0
   -0.2191    1.7229    0.6062 C   0  0  0  0  0  0  0  0  0  0  0  0
    0.7406    1.9375   -0.5643 C   0  0  0  0  0  0  0  0  0  0  0  0
    2.6945   -1.4865   -0.2631 C   0  0  0  0  0  0  0  0  0  0  0  0
   -2.1212   -1.7303    0.2352 C   0  0  0  0  0  0  0  0  0  0  0  0
    3.0149    1.4095    0.3291 C   0  0  0  0  0  0  0  0  0  0  0  0
   -2.7990    0.5193   -0.4699 C   0  0  0  0  0  0  0  0  0  0  0  0
    0.9084   -1.2238    2.0939 C   0  0  0  0  0  0  0  0  0  0  0  0
   -3.6405    0.8876    0.5020 C   0  0  0  0  0  0  0  0  0  0  0  0
   -1.1796    0.2428    1.7958 H   0  0  0  0  0  0  0  0  0  0  0  0
    2.3182    0.9539   -1.6285 H   0  0  0  0  0  0  0  0  0  0  0  0
    0.4507   -2.2258   -1.3196 H   0  0  0  0  0  0  0  0  0  0  0  0
    1.0716   -1.0271   -2.4297 H   0  0  0  0  0  0  0  0  0  0  0  0
   -0.8174    0.3580   -2.1795 H   0  0  0  0  0  0  0  0  0  0  0  0
   -1.4435   -1.2476   -2.2399 H   0  0  0  0  0  0  0  0  0  0  0  0
    0.2789    2.0773    1.5199 H   0  0  0  0  0  0  0  0  0  0  0  0
   -1.0891    2.3768    0.4822 H   0  0  0  0  0  0  0  0  0  0  0  0
    0.1902    1.9227   -1.5071 H   0  0  0  0  0  0  0  0  0  0  0  0
    1.1376    2.9596   -0.5094 H   0  0  0  0  0  0  0  0  0  0  0  0
    3.3586   -1.2466    0.5733 H   0  0  0  0  0  0  0  0  0  0  0  0
    2.4095   -2.5395   -0.1478 H   0  0  0  0  0  0  0  0  0  0  0  0
    3.2807   -1.4065   -1.1861 H   0  0  0  0  0  0  0  0  0  0  0  0
   -1.3249   -2.4797    0.2988 H   0  0  0  0  0  0  0  0  0  0  0  0
   -2.5776   -1.6653    1.2299 H   0  0  0  0  0  0  0  0  0  0  0  0
   -2.8793   -2.1311   -0.4494 H   0  0  0  0  0  0  0  0  0  0  0  0
    2.7277    1.3298    1.3820 H   0  0  0  0  0  0  0  0  0  0  0  0
    3.9415    0.8472    0.1800 H   0  0  0  0  0  0  0  0  0  0  0  0
    3.2585    2.4589    0.1281 H   0  0  0  0  0  0  0  0  0  0  0  0
   -3.0113    0.8688   -1.4777 H   0  0  0  0  0  0  0  0  0  0  0  0
    1.8019   -1.8250    2.2087 H   0  0  0  0  0  0  0  0  0  0  0  0
    0.2487   -1.1698    2.9541 H   0  0  0  0  0  0  0  0  0  0  0  0
   -4.4937    1.5173    0.2728 H   0  0  0  0  0  0  0  0  0  0  0  0
   -3.5097    0.5800    1.5329 H   0  0  0  0  0  0  0  0  0  0  0  0
  1  4  1  0  0  0  0
  1  5  1  0  0  0  0
  1  6  1  0  0  0  0
  1 10  1  0  0  0  0
  2  3  1  0  0  0  0
  2  6  1  0  0  0  0
  2  8  1  0  0  0  0
  2 16  1  0  0  0  0
  3  7  1  0  0  0  0
  3 11  1  0  0  0  0
  3 13  1  0  0  0  0
  4  9  1  0  0  0  0
  4 12  1  0  0  0  0
  4 17  1  0  0  0  0
  5  7  1  0  0  0  0
  5 18  1  0  0  0  0
  5 19  1  0  0  0  0
  6 14  2  0  0  0  0
  7 20  1  0  0  0  0
  7 21  1  0  0  0  0
  8  9  1  0  0  0  0
  8 22  1  0  0  0  0
  8 23  1  0  0  0  0
  9 24  1  0  0  0  0
  9 25  1  0  0  0  0
 10 26  1  0  0  0  0
 10 27  1  0  0  0  0
 10 28  1  0  0  0  0
 11 29  1  0  0  0  0
 11 30  1  0  0  0  0
 11 31  1  0  0  0  0
 12 32  1  0  0  0  0
 12 33  1  0  0  0  0
 12 34  1  0  0  0  0
 13 15  2  0  0  0  0
 13 35  1  0  0  0  0
 14 36  1  0  0  0  0
 14 37  1  0  0  0  0
 15 38  1  0  0  0  0
 15 39  1  0  0  0  0
M  END
> <PUBCHEM_COMPOUND_CID>
6326198

> <PUBCHEM_CONFORMER_RMSD>
0.6

> <PUBCHEM_CONFORMER_DIVERSEORDER>
2
3
1

> <PUBCHEM_MMFF94_PARTIAL_CHARGES>
12
1 0.14
13 -0.29
14 -0.3
15 -0.3
2 0.14
3 0.14
35 0.15
36 0.15
37 0.15
38 0.15
39 0.15
6 -0.28

> <PUBCHEM_EFFECTIVE_ROTOR_COUNT>
2.2

> <PUBCHEM_PHARMACOPHORE_FEATURES>
3
1 15 hydrophobe
6 1 2 3 5 6 7 rings
6 1 2 4 6 8 9 rings

> <PUBCHEM_HEAVY_ATOM_COUNT>
15

> <PUBCHEM_ATOM_DEF_STEREO_COUNT>
4

> <PUBCHEM_ATOM_UDEF_STEREO_COUNT>
0

> <PUBCHEM_BOND_DEF_STEREO_COUNT>
0

> <PUBCHEM_BOND_UDEF_STEREO_COUNT>
0

> <PUBCHEM_ISOTOPIC_ATOM_COUNT>
0

> <PUBCHEM_COMPONENT_COUNT>
1

> <PUBCHEM_CACTVS_TAUTO_COUNT>
1

> <PUBCHEM_CONFORMER_ID>
006087B600000002

> <PUBCHEM_MMFF94_ENERGY>
52.5271

> <PUBCHEM_FEATURE_SELFOVERLAP>
16.661

> <PUBCHEM_SHAPE_FINGERPRINT>
10863032 1 18343305893876482862
10948715 1 18342176708335658324
12326174 3 18187911872794838810
12423570 1 12209451081788157406
12491281 212 18059871565938872617
13024252 1 16880789265693465806
13571099 52 18114457967582634940
144361 1 18129944477111322609
14817 1 12832529349304091282
15557651 10 17530962509766935390
15775835 57 17967256403228161327
15881359 60 17839710735007988693
16945 1 17915760685751981750
20511035 2 17918266575989199575
21501502 16 18341054120339094607
22344851 262 18272086158101437804
22344851 341 18260263083492048018
23419403 2 15947099796623110155
23559900 14 18113910343064270238
241688 4 16977327344009993567
25 1 18261400004448892052
2748010 2 18272380805399811286
3286 77 17825379949654468252
44249140 249 16660908990083547655
5084963 1 17462548826138888708
528886 8 18130788983608968420
5337951 7 18114758069943122206
63268167 104 18410299120203625912
68250623 7 18338243785418605471

> <PUBCHEM_SHAPE_MULTIPOLES>
308.69
4.18
1.94
1.46
1.75
0.3
-0.21
0.7
-0.14
-0.53
-0.08
-0.19
-0.52
-0.15

> <PUBCHEM_SHAPE_SELFOVERLAP>
636.26

> <PUBCHEM_SHAPE_VOLUME>
175.7

> <PUBCHEM_COORDINATE_TYPE>
2
5
10

$$$$
