44259961
  -OEChem-12071809013D

 61 63  0     0  0  0  0  0  0999 V2000
    1.8539    1.1373   -0.1981 O   0  0  0  0  0  0  0  0  0  0  0  0
    0.7646   -2.3724   -0.6717 O   0  0  0  0  0  0  0  0  0  0  0  0
    3.3755    3.3439    0.1999 O   0  0  0  0  0  0  0  0  0  0  0  0
    5.8669   -1.5742   -0.0880 O   0  0  0  0  0  0  0  0  0  0  0  0
    3.4863   -2.5866   -0.4365 O   0  0  0  0  0  0  0  0  0  0  0  0
   -4.3861    1.3064   -0.8738 O   0  0  0  0  0  0  0  0  0  0  0  0
    6.1217    3.1300    0.4525 O   0  0  0  0  0  0  0  0  0  0  0  0
    3.8269   -0.2727   -0.1522 C   0  0  0  0  0  0  0  0  0  0  0  0
    3.2089    0.9727   -0.0779 C   0  0  0  0  0  0  0  0  0  0  0  0
    1.0665    0.0168   -0.4106 C   0  0  0  0  0  0  0  0  0  0  0  0
    1.5346   -1.2448   -0.4913 C   0  0  0  0  0  0  0  0  0  0  0  0
    2.9958   -1.4673   -0.3662 C   0  0  0  0  0  0  0  0  0  0  0  0
   -0.3608    0.3531   -0.5311 C   0  0  0  0  0  0  0  0  0  0  0  0
    3.9744    2.1212    0.1260 C   0  0  0  0  0  0  0  0  0  0  0  0
    5.2140   -0.3804   -0.0239 C   0  0  0  0  0  0  0  0  0  0  0  0
    5.3597    2.0180    0.2542 C   0  0  0  0  0  0  0  0  0  0  0  0
    5.9781    0.7695    0.1792 C   0  0  0  0  0  0  0  0  0  0  0  0
   -1.0560    0.0358   -1.6981 C   0  0  0  0  0  0  0  0  0  0  0  0
   -1.0186    0.9904    0.5210 C   0  0  0  0  0  0  0  0  0  0  0  0
   -3.0663    0.9933   -0.7610 C   0  0  0  0  0  0  0  0  0  0  0  0
   -2.4087    0.3558   -1.8131 C   0  0  0  0  0  0  0  0  0  0  0  0
   -2.3713    1.3105    0.4061 C   0  0  0  0  0  0  0  0  0  0  0  0
    0.3635   -2.9130    0.5729 C   0  0  0  0  0  0  0  0  0  0  0  0
   -0.4457   -4.1504    0.3416 C   0  0  0  0  0  0  0  0  0  0  0  0
   -1.7048   -4.4081    0.7433 C   0  0  0  0  0  0  0  0  0  0  0  0
   -5.1538    1.3251    0.3288 C   0  0  0  0  0  0  0  0  0  0  0  0
    2.9640    3.7855    1.4916 C   0  0  0  0  0  0  0  0  0  0  0  0
   -6.5646    0.9286    0.0261 C   0  0  0  0  0  0  0  0  0  0  0  0
   -2.3526   -5.7274    0.4141 C   0  0  0  0  0  0  0  0  0  0  0  0
   -2.5799   -3.4701    1.5256 C   0  0  0  0  0  0  0  0  0  0  0  0
   -7.6925    1.6276    0.2547 C   0  0  0  0  0  0  0  0  0  0  0  0
   -9.0328    1.0515   -0.1196 C   0  0  0  0  0  0  0  0  0  0  0  0
   -7.7608    2.9942    0.8754 C   0  0  0  0  0  0  0  0  0  0  0  0
    7.0579    0.6859    0.2790 H   0  0  0  0  0  0  0  0  0  0  0  0
   -0.5600   -0.4553   -2.5319 H   0  0  0  0  0  0  0  0  0  0  0  0
   -0.4903    1.2474    1.4361 H   0  0  0  0  0  0  0  0  0  0  0  0
   -2.9449    0.1073   -2.7249 H   0  0  0  0  0  0  0  0  0  0  0  0
   -2.8374    1.8304    1.2377 H   0  0  0  0  0  0  0  0  0  0  0  0
    1.2466   -3.2009    1.1583 H   0  0  0  0  0  0  0  0  0  0  0  0
   -0.1828   -2.1641    1.1523 H   0  0  0  0  0  0  0  0  0  0  0  0
    0.0787   -4.9244   -0.2180 H   0  0  0  0  0  0  0  0  0  0  0  0
    5.2392   -2.2986   -0.2314 H   0  0  0  0  0  0  0  0  0  0  0  0
   -4.7808    0.5889    1.0534 H   0  0  0  0  0  0  0  0  0  0  0  0
   -5.0773    2.3202    0.7723 H   0  0  0  0  0  0  0  0  0  0  0  0
    7.0558    2.8670    0.5186 H   0  0  0  0  0  0  0  0  0  0  0  0
    2.5067    4.7730    1.3861 H   0  0  0  0  0  0  0  0  0  0  0  0
    3.8244    3.8687    2.1630 H   0  0  0  0  0  0  0  0  0  0  0  0
    2.2224    3.1008    1.9151 H   0  0  0  0  0  0  0  0  0  0  0  0
   -6.6600   -0.0569   -0.4288 H   0  0  0  0  0  0  0  0  0  0  0  0
   -3.2552   -5.5672   -0.1848 H   0  0  0  0  0  0  0  0  0  0  0  0
   -1.6901   -6.3883   -0.1549 H   0  0  0  0  0  0  0  0  0  0  0  0
   -2.6335   -6.2512    1.3337 H   0  0  0  0  0  0  0  0  0  0  0  0
   -2.1152   -2.5074    1.7445 H   0  0  0  0  0  0  0  0  0  0  0  0
   -3.4996   -3.2637    0.9676 H   0  0  0  0  0  0  0  0  0  0  0  0
   -2.8546   -3.9251    2.4832 H   0  0  0  0  0  0  0  0  0  0  0  0
   -9.6677    0.9614    0.7680 H   0  0  0  0  0  0  0  0  0  0  0  0
   -9.5359    1.7017   -0.8429 H   0  0  0  0  0  0  0  0  0  0  0  0
   -8.9495    0.0567   -0.5699 H   0  0  0  0  0  0  0  0  0  0  0  0
   -8.2268    3.6991    0.1785 H   0  0  0  0  0  0  0  0  0  0  0  0
   -8.3676    2.9615    1.7866 H   0  0  0  0  0  0  0  0  0  0  0  0
   -6.7880    3.4053    1.1498 H   0  0  0  0  0  0  0  0  0  0  0  0
  1  9  1  0  0  0  0
  1 10  1  0  0  0  0
  2 11  1  0  0  0  0
  2 23  1  0  0  0  0
  3 14  1  0  0  0  0
  3 27  1  0  0  0  0
  4 15  1  0  0  0  0
  4 42  1  0  0  0  0
  5 12  2  0  0  0  0
  6 20  1  0  0  0  0
  6 26  1  0  0  0  0
  7 16  1  0  0  0  0
  7 45  1  0  0  0  0
  8  9  2  0  0  0  0
  8 12  1  0  0  0  0
  8 15  1  0  0  0  0
  9 14  1  0  0  0  0
 10 11  2  0  0  0  0
 10 13  1  0  0  0  0
 11 12  1  0  0  0  0
 13 18  2  0  0  0  0
 13 19  1  0  0  0  0
 14 16  2  0  0  0  0
 15 17  2  0  0  0  0
 16 17  1  0  0  0  0
 17 34  1  0  0  0  0
 18 21  1  0  0  0  0
 18 35  1  0  0  0  0
 19 22  2  0  0  0  0
 19 36  1  0  0  0  0
 20 21  2  0  0  0  0
 20 22  1  0  0  0  0
 21 37  1  0  0  0  0
 22 38  1  0  0  0  0
 23 24  1  0  0  0  0
 23 39  1  0  0  0  0
 23 40  1  0  0  0  0
 24 25  2  0  0  0  0
 24 41  1  0  0  0  0
 25 29  1  0  0  0  0
 25 30  1  0  0  0  0
 26 28  1  0  0  0  0
 26 43  1  0  0  0  0
 26 44  1  0  0  0  0
 27 46  1  0  0  0  0
 27 47  1  0  0  0  0
 27 48  1  0  0  0  0
 28 31  2  0  0  0  0
 28 49  1  0  0  0  0
 29 50  1  0  0  0  0
 29 51  1  0  0  0  0
 29 52  1  0  0  0  0
 30 53  1  0  0  0  0
 30 54  1  0  0  0  0
 30 55  1  0  0  0  0
 31 32  1  0  0  0  0
 31 33  1  0  0  0  0
 32 56  1  0  0  0  0
 32 57  1  0  0  0  0
 32 58  1  0  0  0  0
 33 59  1  0  0  0  0
 33 60  1  0  0  0  0
 33 61  1  0  0  0  0
M  END
> <PUBCHEM_COMPOUND_CID>
44259961

> <PUBCHEM_CONFORMER_RMSD>
1

> <PUBCHEM_CONFORMER_DIVERSEORDER>
1
19
57
60
44
82
3
81
83
43
74
39
37
72
38
9
10
77
14
55
64
12
26
28
79
34
53
75
49
2
6
23
71
18
20
56
87
52
31
65
36
21
73
24
66
67
61
27
46
42
62
50
70
11
88
22
17
76
47
29
15
5
35
41
54
48
69
63
25
40
68
84
4
86
78
32
7
58
45
16
85
80
59
13
51
30
8
33

> <PUBCHEM_MMFF94_PARTIAL_CHARGES>
42
1 -0.16
10 0.05
11 0.09
12 0.47
13 0.03
14 0.08
15 0.08
16 0.08
17 -0.15
18 -0.15
19 -0.15
2 -0.36
20 0.08
21 -0.15
22 -0.15
23 0.42
24 -0.29
25 -0.28
26 0.42
27 0.28
28 -0.29
29 0.14
3 -0.36
30 0.14
31 -0.28
32 0.14
33 0.14
34 0.15
35 0.15
36 0.15
37 0.15
38 0.15
4 -0.53
41 0.15
42 0.45
45 0.45
49 0.15
5 -0.57
6 -0.36
7 -0.53
8 0.09
9 0.08

> <PUBCHEM_EFFECTIVE_ROTOR_COUNT>
8

> <PUBCHEM_PHARMACOPHORE_FEATURES>
12
1 1 acceptor
1 2 acceptor
1 3 acceptor
1 4 donor
1 5 acceptor
1 6 acceptor
1 7 donor
3 25 29 30 hydrophobe
3 31 32 33 hydrophobe
6 1 8 9 10 11 12 rings
6 13 18 19 20 21 22 rings
6 8 9 14 15 16 17 rings

> <PUBCHEM_HEAVY_ATOM_COUNT>
33

> <PUBCHEM_ATOM_DEF_STEREO_COUNT>
0

> <PUBCHEM_ATOM_UDEF_STEREO_COUNT>
0

> <PUBCHEM_BOND_DEF_STEREO_COUNT>
0

> <PUBCHEM_BOND_UDEF_STEREO_COUNT>
0

> <PUBCHEM_ISOTOPIC_ATOM_COUNT>
0

> <PUBCHEM_COMPONENT_COUNT>
1

> <PUBCHEM_CACTVS_TAUTO_COUNT>
12

> <PUBCHEM_CONFORMER_ID>
02A35A7900000001

> <PUBCHEM_MMFF94_ENERGY>
105.9852

> <PUBCHEM_FEATURE_SELFOVERLAP>
60.937

> <PUBCHEM_SHAPE_FINGERPRINT>
10050765 1 18264770034259532358
10165383 225 18260554416241759508
1100329 8 18263351513662260698
11456790 92 18337667516935390224
12236239 1 17846773001172409644
12788726 201 17755850167694346114
12925494 130 18269269226290731992
13140716 1 18409721899170937506
13383665 225 17898587620613590734
13540713 4 18198915884772886382
13692114 37 18341323461928270467
13835254 42 17833834154727650403
14068700 686 18042681694578166773
15400415 2 18337112268506955469
15483637 11 18266178529217414099
15927050 60 18411134736836926503
19319366 153 18341605963633877463
19427546 62 18410014347018884701
20642791 13 18190458466268952382
21033648 144 18263347227310747308
21033648 29 18337943606176384344
21049683 118 18264467624546501299
21521721 280 18410857629809339513
22224240 67 18335701624963035239
23516275 137 17417269653930335447
23845131 108 18410011057079451075
3178227 256 18335700477763928354
335352 9 18341055134510325078
397830 11 18188500176483917481
4073 2 18336547221686184857
4340502 62 18335704906070272543
5104073 3 18191287481784256944
57527293 21 17677039274638869044
653340 110 18121216751357920651
7399639 24 17969215651735123717
9777508 108 18265329680359963602

> <PUBCHEM_SHAPE_MULTIPOLES>
638.04
18.24
5.93
1.11
29.04
8.68
-0.14
-19.24
2.4
1.38
2.66
0.59
-0.06
1.37

> <PUBCHEM_SHAPE_SELFOVERLAP>
1362.163

> <PUBCHEM_SHAPE_VOLUME>
354.6

> <PUBCHEM_COORDINATE_TYPE>
2
5
10

$$$$
