102063130
  -OEChem-12071808383D

 76 81  0     1  0  0  0  0  0999 V2000
   -3.4641    1.4896   -2.0930 O   0  0  0  0  0  0  0  0  0  0  0  0
    4.2721    2.4339   -0.6312 O   0  0  0  0  0  0  0  0  0  0  0  0
   -6.9905   -2.2417   -0.8424 O   0  0  0  0  0  0  0  0  0  0  0  0
    3.4336   -1.0852    0.2731 N   0  0  1  0  0  0  0  0  0  0  0  0
   -2.1397    0.1451    1.0345 C   0  0  1  0  0  0  0  0  0  0  0  0
    0.2116    0.5990    1.6001 C   0  0  1  0  0  0  0  0  0  0  0  0
   -1.6487    1.4196    0.3308 C   0  0  2  0  0  0  0  0  0  0  0  0
   -0.5829    1.8979    1.3218 C   0  0  2  0  0  0  0  0  0  0  0  0
   -3.1593   -0.6535    0.1822 C   0  0  2  0  0  0  0  0  0  0  0  0
   -0.8488   -0.5359    1.5049 C   0  0  0  0  0  0  0  0  0  0  0  0
    1.3843    0.3351    0.6150 C   0  0  1  0  0  0  0  0  0  0  0  0
    2.2187    1.5991    0.3413 C   0  0  2  0  0  0  0  0  0  0  0  0
   -4.3476    0.3315   -0.1073 C   0  0  1  0  0  0  0  0  0  0  0  0
   -2.8129    2.3680    0.0530 C   0  0  0  0  0  0  0  0  0  0  0  0
    0.2603    3.0864    0.8787 C   0  0  0  0  0  0  0  0  0  0  0  0
   -3.9200    1.6694   -0.7571 C   0  0  1  0  0  0  0  0  0  0  0  0
    1.3108    2.7321   -0.1640 C   0  0  0  0  0  0  0  0  0  0  0  0
    3.4208    1.2778   -0.5967 C   0  0  2  0  0  0  0  0  0  0  0  0
   -3.7191   -1.8457    1.0045 C   0  0  0  0  0  0  0  0  0  0  0  0
    2.2938   -0.7841    1.1575 C   0  0  0  0  0  0  0  0  0  0  0  0
    4.2603    0.1174    0.0334 C   0  0  2  0  0  0  0  0  0  0  0  0
   -5.4973   -0.3632   -0.8508 C   0  0  0  0  0  0  0  0  0  0  0  0
   -2.5063   -1.2172   -1.1043 C   0  0  0  0  0  0  0  0  0  0  0  0
   -4.8960   -2.5426    0.3183 C   0  0  0  0  0  0  0  0  0  0  0  0
   -6.0113   -1.5675   -0.0587 C   0  0  2  0  0  0  0  0  0  0  0  0
    5.5073   -0.2191   -0.8201 C   0  0  0  0  0  0  0  0  0  0  0  0
    2.9878    0.9787   -2.0445 C   0  0  0  0  0  0  0  0  0  0  0  0
    4.2218   -2.1766    0.8784 C   0  0  0  0  0  0  0  0  0  0  0  0
    5.4342   -2.5913    0.0342 C   0  0  2  0  0  0  0  0  0  0  0  0
    6.3163   -1.3694   -0.2293 C   0  0  0  0  0  0  0  0  0  0  0  0
    5.0106   -3.2877   -1.2625 C   0  0  0  0  0  0  0  0  0  0  0  0
   -2.6662    0.4541    1.9530 H   0  0  0  0  0  0  0  0  0  0  0  0
    0.6122    0.6483    2.6210 H   0  0  0  0  0  0  0  0  0  0  0  0
   -1.1634    1.1801   -0.6222 H   0  0  0  0  0  0  0  0  0  0  0  0
   -1.0914    2.1967    2.2507 H   0  0  0  0  0  0  0  0  0  0  0  0
   -0.5343   -1.3320    0.8259 H   0  0  0  0  0  0  0  0  0  0  0  0
   -1.0019   -0.9976    2.4872 H   0  0  0  0  0  0  0  0  0  0  0  0
    0.9571   -0.0052   -0.3384 H   0  0  0  0  0  0  0  0  0  0  0  0
    2.6396    1.9443    1.2986 H   0  0  0  0  0  0  0  0  0  0  0  0
   -4.7617    0.6172    0.8737 H   0  0  0  0  0  0  0  0  0  0  0  0
   -3.2332    2.7261    1.0010 H   0  0  0  0  0  0  0  0  0  0  0  0
   -2.4469    3.2450   -0.4929 H   0  0  0  0  0  0  0  0  0  0  0  0
    0.7738    3.4939    1.7595 H   0  0  0  0  0  0  0  0  0  0  0  0
   -0.3784    3.8920    0.5004 H   0  0  0  0  0  0  0  0  0  0  0  0
   -4.7908    2.3341   -0.8074 H   0  0  0  0  0  0  0  0  0  0  0  0
    0.8074    2.4470   -1.0940 H   0  0  0  0  0  0  0  0  0  0  0  0
    1.9078    3.6247   -0.3832 H   0  0  0  0  0  0  0  0  0  0  0  0
    1.6963   -1.6954    1.2802 H   0  0  0  0  0  0  0  0  0  0  0  0
    2.6551   -0.5050    2.1572 H   0  0  0  0  0  0  0  0  0  0  0  0
   -4.0545   -1.4900    1.9878 H   0  0  0  0  0  0  0  0  0  0  0  0
   -2.9298   -2.5824    1.1984 H   0  0  0  0  0  0  0  0  0  0  0  0
    4.6454    0.4745    1.0016 H   0  0  0  0  0  0  0  0  0  0  0  0
   -6.3271    0.3402   -0.9989 H   0  0  0  0  0  0  0  0  0  0  0  0
   -5.2002   -0.6678   -1.8609 H   0  0  0  0  0  0  0  0  0  0  0  0
   -1.7802   -2.0022   -0.8667 H   0  0  0  0  0  0  0  0  0  0  0  0
   -3.2374   -1.6697   -1.7796 H   0  0  0  0  0  0  0  0  0  0  0  0
   -1.9742   -0.4607   -1.6838 H   0  0  0  0  0  0  0  0  0  0  0  0
   -4.5563   -3.0840   -0.5730 H   0  0  0  0  0  0  0  0  0  0  0  0
   -5.3004   -3.3167    0.9825 H   0  0  0  0  0  0  0  0  0  0  0  0
   -6.5067   -1.2108    0.8525 H   0  0  0  0  0  0  0  0  0  0  0  0
    6.1559    0.6612   -0.9002 H   0  0  0  0  0  0  0  0  0  0  0  0
    5.2225   -0.4921   -1.8411 H   0  0  0  0  0  0  0  0  0  0  0  0
    3.8527    0.9031   -2.7115 H   0  0  0  0  0  0  0  0  0  0  0  0
    2.3992    1.8022   -2.4612 H   0  0  0  0  0  0  0  0  0  0  0  0
    2.4040    0.0581   -2.1280 H   0  0  0  0  0  0  0  0  0  0  0  0
    3.5811   -3.0567    1.0194 H   0  0  0  0  0  0  0  0  0  0  0  0
    4.5736   -1.8795    1.8763 H   0  0  0  0  0  0  0  0  0  0  0  0
    6.0230   -3.3150    0.6128 H   0  0  0  0  0  0  0  0  0  0  0  0
    7.1442   -1.6279   -0.8997 H   0  0  0  0  0  0  0  0  0  0  0  0
    6.7675   -1.0398    0.7154 H   0  0  0  0  0  0  0  0  0  0  0  0
   -3.2479    2.3666   -2.4529 H   0  0  0  0  0  0  0  0  0  0  0  0
    4.5452    2.6372    0.2796 H   0  0  0  0  0  0  0  0  0  0  0  0
   -7.3153   -2.9953   -0.3207 H   0  0  0  0  0  0  0  0  0  0  0  0
    4.3767   -2.6545   -1.8907 H   0  0  0  0  0  0  0  0  0  0  0  0
    4.4479   -4.2005   -1.0389 H   0  0  0  0  0  0  0  0  0  0  0  0
    5.8888   -3.5751   -1.8503 H   0  0  0  0  0  0  0  0  0  0  0  0
  1 16  1  0  0  0  0
  1 71  1  0  0  0  0
  2 18  1  0  0  0  0
  2 72  1  0  0  0  0
  3 25  1  0  0  0  0
  3 73  1  0  0  0  0
  4 20  1  0  0  0  0
  4 21  1  0  0  0  0
  4 28  1  0  0  0  0
  5  7  1  0  0  0  0
  5  9  1  0  0  0  0
  5 10  1  0  0  0  0
  5 32  1  0  0  0  0
  6  8  1  0  0  0  0
  6 10  1  0  0  0  0
  6 11  1  0  0  0  0
  6 33  1  0  0  0  0
  7  8  1  0  0  0  0
  7 14  1  0  0  0  0
  7 34  1  0  0  0  0
  8 15  1  0  0  0  0
  8 35  1  0  0  0  0
  9 13  1  0  0  0  0
  9 19  1  0  0  0  0
  9 23  1  0  0  0  0
 10 36  1  0  0  0  0
 10 37  1  0  0  0  0
 11 12  1  0  0  0  0
 11 20  1  0  0  0  0
 11 38  1  0  0  0  0
 12 17  1  0  0  0  0
 12 18  1  0  0  0  0
 12 39  1  0  0  0  0
 13 16  1  0  0  0  0
 13 22  1  0  0  0  0
 13 40  1  0  0  0  0
 14 16  1  0  0  0  0
 14 41  1  0  0  0  0
 14 42  1  0  0  0  0
 15 17  1  0  0  0  0
 15 43  1  0  0  0  0
 15 44  1  0  0  0  0
 16 45  1  0  0  0  0
 17 46  1  0  0  0  0
 17 47  1  0  0  0  0
 18 21  1  0  0  0  0
 18 27  1  0  0  0  0
 19 24  1  0  0  0  0
 19 50  1  0  0  0  0
 19 51  1  0  0  0  0
 20 48  1  0  0  0  0
 20 49  1  0  0  0  0
 21 26  1  0  0  0  0
 21 52  1  0  0  0  0
 22 25  1  0  0  0  0
 22 53  1  0  0  0  0
 22 54  1  0  0  0  0
 23 55  1  0  0  0  0
 23 56  1  0  0  0  0
 23 57  1  0  0  0  0
 24 25  1  0  0  0  0
 24 58  1  0  0  0  0
 24 59  1  0  0  0  0
 25 60  1  0  0  0  0
 26 30  1  0  0  0  0
 26 61  1  0  0  0  0
 26 62  1  0  0  0  0
 27 63  1  0  0  0  0
 27 64  1  0  0  0  0
 27 65  1  0  0  0  0
 28 29  1  0  0  0  0
 28 66  1  0  0  0  0
 28 67  1  0  0  0  0
 29 30  1  0  0  0  0
 29 31  1  0  0  0  0
 29 68  1  0  0  0  0
 30 69  1  0  0  0  0
 30 70  1  0  0  0  0
 31 74  1  0  0  0  0
 31 75  1  0  0  0  0
 31 76  1  0  0  0  0
M  END
> <PUBCHEM_COMPOUND_CID>
102063130

> <PUBCHEM_CONFORMER_RMSD>
0.8

> <PUBCHEM_CONFORMER_DIVERSEORDER>
1
2

> <PUBCHEM_MMFF94_PARTIAL_CHARGES>
13
1 -0.68
16 0.28
18 0.28
2 -0.68
20 0.27
21 0.27
25 0.28
28 0.27
3 -0.68
4 -0.81
71 0.4
72 0.4
73 0.4

> <PUBCHEM_EFFECTIVE_ROTOR_COUNT>
3

> <PUBCHEM_PHARMACOPHORE_FEATURES>
13
1 1 acceptor
1 1 donor
1 2 acceptor
1 2 donor
1 3 acceptor
1 3 donor
1 4 cation
5 5 6 7 8 10 rings
6 4 11 12 18 20 21 rings
6 4 21 26 28 29 30 rings
6 5 7 9 13 14 16 rings
6 6 8 11 12 15 17 rings
6 9 13 19 22 24 25 rings

> <PUBCHEM_HEAVY_ATOM_COUNT>
31

> <PUBCHEM_ATOM_DEF_STEREO_COUNT>
12

> <PUBCHEM_ATOM_UDEF_STEREO_COUNT>
1

> <PUBCHEM_BOND_DEF_STEREO_COUNT>
0

> <PUBCHEM_BOND_UDEF_STEREO_COUNT>
0

> <PUBCHEM_ISOTOPIC_ATOM_COUNT>
0

> <PUBCHEM_COMPONENT_COUNT>
1

> <PUBCHEM_CACTVS_TAUTO_COUNT>
1

> <PUBCHEM_CONFORMER_ID>
06155C1A00000001

> <PUBCHEM_MMFF94_ENERGY>
96.885

> <PUBCHEM_FEATURE_SELFOVERLAP>
66.206

> <PUBCHEM_SHAPE_FINGERPRINT>
10622 236 18117828907373409794
10670039 82 15213296379316688806
10693767 8 18340761637045251803
11135609 99 18342173367737579030
11315621 136 18408889521112348462
117089 54 18267871756156384899
12166972 35 18260833695809569740
12422481 6 16845019991682940534
12633257 1 15195555815010554554
12760667 363 18343303674011588651
13690498 29 18333728010038882047
13782708 43 18201433744735999639
13911987 19 17830196932072732452
13944108 23 15949042027990241709
14068700 675 18335697184035546642
14251764 30 18341893047822175759
14347332 77 18410854352416944097
14848178 5 18201719492851397326
14866123 147 18270405976049959481
14910302 57 18261100915995604933
14950920 106 12966847863112116108
14951699 99 10303812111493062002
15001296 14 18336262452797183866
15082195 135 17750246961939382764
15183329 4 17676486116788688178
15510800 12 17702673133830695382
17349148 13 17275105011796452892
17492 89 18341899528896163774
17909252 39 18342176678750656496
1813 80 16128379298003866585
18681886 176 18411133637440538114
19958102 18 18113050532712211167
20775438 99 17836624689595703563
208703 8 18341331102859667734
21033648 29 10737294588377131182
21033650 10 17241043197808764397
21307412 95 17981611463847816598
21315764 119 18040149622209184847
21756936 100 7853272221603167816
221357 26 18334009519006007355
22393880 68 18113329782758329280
23379529 103 18412265064358750443
23522609 53 18055947452638632313
23559900 14 18409721863756242569
23569914 152 17979886373707442439
23569943 247 18413670219557134427
25222932 49 18057324113704000134
2838139 119 15357697457532305972
3004659 81 18333166172139229010
329604 57 18410858767464138714
339767 52 18341608162709665878
4017518 198 15522333591859897858
4098825 35 18187085052761755453
4280585 95 18189894206887900450
439807 62 18409168827125410295
44062 13 18409729517577698893
46194498 28 17894909693329858972
463206 1 18341050830041159634
508706 21 16805327673438774020
6608658 132 15791996837111730781
6669772 16 17983852561057005536
7808743 9 8141788479036024928
7970288 3 18272651259659849439

> <PUBCHEM_SHAPE_MULTIPOLES>
615.38
15.05
3.5
1.46
1.12
0.12
-0.25
12.73
-4.82
-1.01
-0.21
0.04
-0.15
0.07

> <PUBCHEM_SHAPE_SELFOVERLAP>
1314.636

> <PUBCHEM_SHAPE_VOLUME>
336.4

> <PUBCHEM_COORDINATE_TYPE>
2
5
10

$$$$
