40579117
  -OEChem-12071808443D

 30 31  0     1  0  0  0  0  0999 V2000
    1.6207   -2.8459   -0.3404 O   0  0  0  0  0  0  0  0  0  0  0  0
    2.2487    2.4350   -0.6094 O   0  0  0  0  0  0  0  0  0  0  0  0
    0.9493    0.5720   -0.9404 N   0  0  0  0  0  0  0  0  0  0  0  0
    2.8378   -0.9551    0.1433 N   0  0  0  0  0  0  0  0  0  0  0  0
    0.4890   -0.7265   -0.4762 C   0  0  2  0  0  0  0  0  0  0  0  0
   -0.3837   -0.6308    0.7654 C   0  0  0  0  0  0  0  0  0  0  0  0
    2.8207    0.4223    0.6098 C   0  0  2  0  0  0  0  0  0  0  0  0
    1.6952   -1.6210   -0.2579 C   0  0  0  0  0  0  0  0  0  0  0  0
    2.0253    1.2458   -0.3915 C   0  0  0  0  0  0  0  0  0  0  0  0
   -1.7886   -0.2043    0.4305 C   0  0  0  0  0  0  0  0  0  0  0  0
    4.2354    0.9581    0.7763 C   0  0  0  0  0  0  0  0  0  0  0  0
   -2.1198    1.1505    0.4104 C   0  0  0  0  0  0  0  0  0  0  0  0
   -2.7584   -1.1638    0.1402 C   0  0  0  0  0  0  0  0  0  0  0  0
   -3.4211    1.5459    0.1001 C   0  0  0  0  0  0  0  0  0  0  0  0
   -4.0596   -0.7685   -0.1701 C   0  0  0  0  0  0  0  0  0  0  0  0
   -4.3909    0.5864   -0.1901 C   0  0  0  0  0  0  0  0  0  0  0  0
   -0.0689   -1.1601   -1.3160 H   0  0  0  0  0  0  0  0  0  0  0  0
    0.0349    0.0598    1.5077 H   0  0  0  0  0  0  0  0  0  0  0  0
   -0.4273   -1.6033    1.2744 H   0  0  0  0  0  0  0  0  0  0  0  0
    2.3004    0.4454    1.5731 H   0  0  0  0  0  0  0  0  0  0  0  0
    0.3592    1.0788   -1.5931 H   0  0  0  0  0  0  0  0  0  0  0  0
    3.6547   -1.5222    0.3505 H   0  0  0  0  0  0  0  0  0  0  0  0
    4.7737    0.9606   -0.1784 H   0  0  0  0  0  0  0  0  0  0  0  0
    4.8063    0.3414    1.4787 H   0  0  0  0  0  0  0  0  0  0  0  0
    4.2256    1.9850    1.1566 H   0  0  0  0  0  0  0  0  0  0  0  0
   -1.3737    1.9081    0.6354 H   0  0  0  0  0  0  0  0  0  0  0  0
   -2.5122   -2.2223    0.1503 H   0  0  0  0  0  0  0  0  0  0  0  0
   -3.6791    2.6008    0.0845 H   0  0  0  0  0  0  0  0  0  0  0  0
   -4.8148   -1.5155   -0.3968 H   0  0  0  0  0  0  0  0  0  0  0  0
   -5.4040    0.8941   -0.4319 H   0  0  0  0  0  0  0  0  0  0  0  0
  1  8  2  0  0  0  0
  2  9  2  0  0  0  0
  3  5  1  0  0  0  0
  3  9  1  0  0  0  0
  3 21  1  0  0  0  0
  4  7  1  0  0  0  0
  4  8  1  0  0  0  0
  4 22  1  0  0  0  0
  5  6  1  0  0  0  0
  5  8  1  0  0  0  0
  5 17  1  0  0  0  0
  6 10  1  0  0  0  0
  6 18  1  0  0  0  0
  6 19  1  0  0  0  0
  7  9  1  0  0  0  0
  7 11  1  0  0  0  0
  7 20  1  0  0  0  0
 10 12  2  0  0  0  0
 10 13  1  0  0  0  0
 11 23  1  0  0  0  0
 11 24  1  0  0  0  0
 11 25  1  0  0  0  0
 12 14  1  0  0  0  0
 12 26  1  0  0  0  0
 13 15  2  0  0  0  0
 13 27  1  0  0  0  0
 14 16  2  0  0  0  0
 14 28  1  0  0  0  0
 15 16  1  0  0  0  0
 15 29  1  0  0  0  0
 16 30  1  0  0  0  0
M  END
> <PUBCHEM_COMPOUND_CID>
40579117

> <PUBCHEM_CONFORMER_RMSD>
0.6

> <PUBCHEM_CONFORMER_DIVERSEORDER>
1
9
7
4
5
8
11
3
6
2
10

> <PUBCHEM_MMFF94_PARTIAL_CHARGES>
22
1 -0.57
10 -0.14
12 -0.15
13 -0.15
14 -0.15
15 -0.15
16 -0.15
2 -0.57
21 0.37
22 0.37
26 0.15
27 0.15
28 0.15
29 0.15
3 -0.73
30 0.15
4 -0.73
5 0.36
6 0.14
7 0.36
8 0.57
9 0.57

> <PUBCHEM_EFFECTIVE_ROTOR_COUNT>
2.8

> <PUBCHEM_PHARMACOPHORE_FEATURES>
6
1 1 acceptor
1 2 acceptor
1 3 donor
1 4 donor
6 10 12 13 14 15 16 rings
6 3 4 5 7 8 9 rings

> <PUBCHEM_HEAVY_ATOM_COUNT>
16

> <PUBCHEM_ATOM_DEF_STEREO_COUNT>
2

> <PUBCHEM_ATOM_UDEF_STEREO_COUNT>
0

> <PUBCHEM_BOND_DEF_STEREO_COUNT>
0

> <PUBCHEM_BOND_UDEF_STEREO_COUNT>
0

> <PUBCHEM_ISOTOPIC_ATOM_COUNT>
0

> <PUBCHEM_COMPONENT_COUNT>
1

> <PUBCHEM_CACTVS_TAUTO_COUNT>
9

> <PUBCHEM_CONFORMER_ID>
026B302D00000001

> <PUBCHEM_MMFF94_ENERGY>
51.1671

> <PUBCHEM_FEATURE_SELFOVERLAP>
30.454

> <PUBCHEM_SHAPE_FINGERPRINT>
10608611 8 18409166576319824029
10922523 26 18262802852631593917
10980938 120 18410294687944738114
11132069 177 18407755949882381033
11370993 70 18411131459190706507
12162725 195 18335703866392865505
12251169 10 18187641444526631136
13380535 76 18335984250242304219
14144814 61 18409732820454996307
14250199 8 18335990787635929933
14289901 80 18342176674440013955
14415576 193 18410577296597610222
14897335 6 18412261740111650147
15442244 35 18051696546794124427
15536298 74 18341896251234372959
15775835 57 17917990615623655816
16945 1 18337124426593876451
17492 89 18411419488678524527
17802600 8 18334570265636314237
18186145 218 18341059501832766063
200 152 18273207617164784911
20645477 56 18261111829929705077
20645477 70 18130224848587867879
21524375 3 18337672043809287792
22096605 113 18411983589450215225
22854114 111 18413110554329475659
23402539 116 18335972168973833319
23419403 2 16834837264596368338
23557571 272 17775006799549043433
23559900 14 18341609257198605610
2838139 119 15194708156455535064
351380 180 18334850649585700345
3545911 37 18411420592315372625
474 4 18261112997474870977
5104073 3 18411139091664058027
57812782 119 18259702311319134505
58051976 378 18342174505344580807
6333272 397 18337674225346887994
69090 78 18410852140804348207
7364860 26 18271247114506988262
7832392 63 18121503453626081689
9709674 26 18410017632743245267

> <PUBCHEM_SHAPE_MULTIPOLES>
307.57
7.82
2.15
0.83
2.99
0.43
0.02
-2.02
0.65
-1.12
-0.32
-0.26
-0.09
0.04

> <PUBCHEM_SHAPE_SELFOVERLAP>
647.831

> <PUBCHEM_SHAPE_VOLUME>
170.9

> <PUBCHEM_COORDINATE_TYPE>
2
5
10

$$$$
