5315988
  -OEChem-12071809013D

 68 71  0     1  0  0  0  0  0999 V2000
    0.8584   -1.4707   -3.6089 O   0  0  0  0  0  0  0  0  0  0  0  0
   -0.7891   -4.9359   -0.7961 O   0  0  0  0  0  0  0  0  0  0  0  0
    4.2181   -1.1503    1.2166 O   0  0  0  0  0  0  0  0  0  0  0  0
   -3.6600    3.9900   -0.8270 O   0  0  0  0  0  0  0  0  0  0  0  0
    7.8531    1.8565    1.8923 O   0  0  0  0  0  0  0  0  0  0  0  0
   -3.6424   -2.9215    0.4712 O   0  0  0  0  0  0  0  0  0  0  0  0
   -5.9809    2.9036    1.3296 O   0  0  0  0  0  0  0  0  0  0  0  0
    0.7436    0.4512   -1.4989 C   0  0  1  0  0  0  0  0  0  0  0  0
    1.9804    0.8939   -0.6440 C   0  0  0  0  0  0  0  0  0  0  0  0
    0.3392   -0.9751   -1.3219 C   0  0  0  0  0  0  0  0  0  0  0  0
    3.3167    0.2773   -1.0970 C   0  0  0  0  0  0  0  0  0  0  0  0
   -0.4470    1.4082   -1.3177 C   0  0  0  0  0  0  0  0  0  0  0  0
   -0.1172   -1.4053   -0.0760 C   0  0  0  0  0  0  0  0  0  0  0  0
   -0.4977   -2.7348    0.1065 C   0  0  0  0  0  0  0  0  0  0  0  0
    0.4151   -1.8745   -2.3855 C   0  0  0  0  0  0  0  0  0  0  0  0
    4.5226    0.6875   -0.2916 C   0  0  0  0  0  0  0  0  0  0  0  0
   -0.9888   -3.1820    1.4591 C   0  0  0  0  0  0  0  0  0  0  0  0
   -0.7192    1.9521   -0.0624 C   0  0  0  0  0  0  0  0  0  0  0  0
   -1.2546    1.7320   -2.4081 C   0  0  0  0  0  0  0  0  0  0  0  0
   -0.4217   -3.6341   -0.9571 C   0  0  0  0  0  0  0  0  0  0  0  0
    0.0346   -3.2039   -2.2030 C   0  0  0  0  0  0  0  0  0  0  0  0
   -1.9840   -2.1853    2.0577 C   0  0  0  0  0  0  0  0  0  0  0  0
    4.9162   -0.0471    0.8269 C   0  0  0  0  0  0  0  0  0  0  0  0
    5.2487    1.8145   -0.6766 C   0  0  0  0  0  0  0  0  0  0  0  0
   -1.7988    2.8199    0.1025 C   0  0  0  0  0  0  0  0  0  0  0  0
   -2.3341    2.5997   -2.2431 C   0  0  0  0  0  0  0  0  0  0  0  0
   -2.6062    3.1437   -0.9878 C   0  0  0  0  0  0  0  0  0  0  0  0
    6.0360    0.3452    1.5603 C   0  0  0  0  0  0  0  0  0  0  0  0
    6.3684    2.2069    0.0567 C   0  0  0  0  0  0  0  0  0  0  0  0
   -3.2438   -1.9859    1.1948 C   0  0  0  0  0  0  0  0  0  0  0  0
    6.7621    1.4721    1.1751 C   0  0  0  0  0  0  0  0  0  0  0  0
   -3.9549   -0.7177    1.2299 C   0  0  0  0  0  0  0  0  0  0  0  0
    4.6905   -1.8416    2.3711 C   0  0  0  0  0  0  0  0  0  0  0  0
   -3.9456    0.0549    2.3913 C   0  0  0  0  0  0  0  0  0  0  0  0
   -4.6457   -0.2737    0.1024 C   0  0  0  0  0  0  0  0  0  0  0  0
   -4.6269    1.2715    2.4250 C   0  0  0  0  0  0  0  0  0  0  0  0
   -5.3271    0.9429    0.1360 C   0  0  0  0  0  0  0  0  0  0  0  0
   -5.3177    1.7155    1.2974 C   0  0  0  0  0  0  0  0  0  0  0  0
    1.0709    0.6155   -2.5350 H   0  0  0  0  0  0  0  0  0  0  0  0
    1.8282    0.6531    0.4156 H   0  0  0  0  0  0  0  0  0  0  0  0
    2.0828    1.9868   -0.6986 H   0  0  0  0  0  0  0  0  0  0  0  0
    3.4905    0.5413   -2.1490 H   0  0  0  0  0  0  0  0  0  0  0  0
    3.2382   -0.8171   -1.0960 H   0  0  0  0  0  0  0  0  0  0  0  0
   -0.1322   -0.7121    0.7573 H   0  0  0  0  0  0  0  0  0  0  0  0
   -0.1261   -3.2888    2.1277 H   0  0  0  0  0  0  0  0  0  0  0  0
   -1.4695   -4.1652    1.4023 H   0  0  0  0  0  0  0  0  0  0  0  0
   -0.1174    1.7167    0.8095 H   0  0  0  0  0  0  0  0  0  0  0  0
   -1.0553    1.3134   -3.3909 H   0  0  0  0  0  0  0  0  0  0  0  0
    0.0937   -3.9050   -3.0322 H   0  0  0  0  0  0  0  0  0  0  0  0
   -1.5077   -1.2214    2.2590 H   0  0  0  0  0  0  0  0  0  0  0  0
   -2.3250   -2.5752    3.0251 H   0  0  0  0  0  0  0  0  0  0  0  0
    4.9514    2.3971   -1.5447 H   0  0  0  0  0  0  0  0  0  0  0  0
   -2.0018    3.2354    1.0860 H   0  0  0  0  0  0  0  0  0  0  0  0
   -2.9605    2.8471   -3.0958 H   0  0  0  0  0  0  0  0  0  0  0  0
    6.3894   -0.1853    2.4380 H   0  0  0  0  0  0  0  0  0  0  0  0
    0.8423   -2.2280   -4.2189 H   0  0  0  0  0  0  0  0  0  0  0  0
    6.9293    3.0864   -0.2474 H   0  0  0  0  0  0  0  0  0  0  0  0
   -0.6697   -5.4068   -1.6386 H   0  0  0  0  0  0  0  0  0  0  0  0
   -3.7039    4.2646    0.1051 H   0  0  0  0  0  0  0  0  0  0  0  0
    4.0175   -2.6899    2.5349 H   0  0  0  0  0  0  0  0  0  0  0  0
    4.6344   -1.2158    3.2683 H   0  0  0  0  0  0  0  0  0  0  0  0
    5.6911   -2.2578    2.2121 H   0  0  0  0  0  0  0  0  0  0  0  0
   -3.4296   -0.2721    3.2895 H   0  0  0  0  0  0  0  0  0  0  0  0
   -4.6588   -0.8587   -0.8136 H   0  0  0  0  0  0  0  0  0  0  0  0
    7.9825    1.2384    2.6318 H   0  0  0  0  0  0  0  0  0  0  0  0
   -4.6140    1.8633    3.3363 H   0  0  0  0  0  0  0  0  0  0  0  0
   -5.8608    1.2852   -0.7464 H   0  0  0  0  0  0  0  0  0  0  0  0
   -5.8637    3.3061    2.2073 H   0  0  0  0  0  0  0  0  0  0  0  0
  1 15  1  0  0  0  0
  1 56  1  0  0  0  0
  2 20  1  0  0  0  0
  2 58  1  0  0  0  0
  3 23  1  0  0  0  0
  3 33  1  0  0  0  0
  4 27  1  0  0  0  0
  4 59  1  0  0  0  0
  5 31  1  0  0  0  0
  5 65  1  0  0  0  0
  6 30  2  0  0  0  0
  7 38  1  0  0  0  0
  7 68  1  0  0  0  0
  8  9  1  0  0  0  0
  8 10  1  0  0  0  0
  8 12  1  0  0  0  0
  8 39  1  0  0  0  0
  9 11  1  0  0  0  0
  9 40  1  0  0  0  0
  9 41  1  0  0  0  0
 10 13  1  0  0  0  0
 10 15  2  0  0  0  0
 11 16  1  0  0  0  0
 11 42  1  0  0  0  0
 11 43  1  0  0  0  0
 12 18  2  0  0  0  0
 12 19  1  0  0  0  0
 13 14  2  0  0  0  0
 13 44  1  0  0  0  0
 14 17  1  0  0  0  0
 14 20  1  0  0  0  0
 15 21  1  0  0  0  0
 16 23  2  0  0  0  0
 16 24  1  0  0  0  0
 17 22  1  0  0  0  0
 17 45  1  0  0  0  0
 17 46  1  0  0  0  0
 18 25  1  0  0  0  0
 18 47  1  0  0  0  0
 19 26  2  0  0  0  0
 19 48  1  0  0  0  0
 20 21  2  0  0  0  0
 21 49  1  0  0  0  0
 22 30  1  0  0  0  0
 22 50  1  0  0  0  0
 22 51  1  0  0  0  0
 23 28  1  0  0  0  0
 24 29  2  0  0  0  0
 24 52  1  0  0  0  0
 25 27  2  0  0  0  0
 25 53  1  0  0  0  0
 26 27  1  0  0  0  0
 26 54  1  0  0  0  0
 28 31  2  0  0  0  0
 28 55  1  0  0  0  0
 29 31  1  0  0  0  0
 29 57  1  0  0  0  0
 30 32  1  0  0  0  0
 32 34  2  0  0  0  0
 32 35  1  0  0  0  0
 33 60  1  0  0  0  0
 33 61  1  0  0  0  0
 33 62  1  0  0  0  0
 34 36  1  0  0  0  0
 34 63  1  0  0  0  0
 35 37  2  0  0  0  0
 35 64  1  0  0  0  0
 36 38  2  0  0  0  0
 36 66  1  0  0  0  0
 37 38  1  0  0  0  0
 37 67  1  0  0  0  0
M  END
> <PUBCHEM_COMPOUND_CID>
5315988

> <PUBCHEM_CONFORMER_RMSD>
1.4

> <PUBCHEM_CONFORMER_DIVERSEORDER>
2
19
302
269
147
251
313
287
20
259
194
316
79
311
132
148
169
271
57
332
325
75
286
126
274
160
90
318
239
213
150
26
322
65
310
28
151
275
139
327
59
5
73
69
321
262
237
285
76
113
326
218
245
16
276
198
246
258
134
77
308
186
193
168
153
137
174
130
50
107
224
80
204
196
52
167
115
250
185
179
229
296
306
289
211
304
109
291
234
118
44
223
54
156
133
187
14
123
201
317
87
47
178
159
15
43
283
171
282
61
38
12
121
135
158
231
190
298
220
280
93
206
214
58
222
55
297
238
11
45
49
235
1
97
257
192
293
71
226
32
149
67
95
157
330
166
268
273
263
98
22
53
102
299
74
82
182
320
152
125
63
272
145
128
232
92
240
288
155
183
228
267
203
18
256
328
247
162
309
140
189
143
89
177
324
108
329
164
86
27
181
244
210
84
221
243
112
91
236
154
215
300
307
295
261
96
331
144
284
94
4
103
225
173
294
163
127
281
165
249
104
301
252
30
119
141
209
292
8
315
37
142
114
46
131
21
35
100
106
175
212
62
265
120
253
81
117
323
207
305
314
25
78
180
110
42
242
266
230
184
260
279
146
227
83
278
122
197
319
13
23
217
176
233
241
29
17
48
41
202
56
254
111
270
172
200
188
208
205
70
138
219
199
277
129
64
303
248
66
290
3
312
7
9
161
31
136
116
36
85
264
101
255
99
33
72
60
68
124
39
195
51
88
216
40
170
24
105
191
6
34
10

> <PUBCHEM_MMFF94_PARTIAL_CHARGES>
55
1 -0.53
10 -0.14
11 0.14
12 -0.14
13 -0.15
14 -0.14
15 0.08
16 -0.14
17 0.14
18 -0.15
19 -0.15
2 -0.53
20 0.08
21 -0.15
22 0.06
23 0.08
24 -0.15
25 -0.15
26 -0.15
27 0.08
28 -0.15
29 -0.15
3 -0.36
30 0.42
31 0.08
32 0.09
33 0.28
34 -0.15
35 -0.15
36 -0.15
37 -0.15
38 0.08
4 -0.53
44 0.15
47 0.15
48 0.15
49 0.15
5 -0.53
52 0.15
53 0.15
54 0.15
55 0.15
56 0.45
57 0.15
58 0.45
59 0.45
6 -0.57
63 0.15
64 0.15
65 0.45
66 0.15
67 0.15
68 0.45
7 -0.53
8 0.29

> <PUBCHEM_EFFECTIVE_ROTOR_COUNT>
10

> <PUBCHEM_PHARMACOPHORE_FEATURES>
11
1 1 donor
1 2 donor
1 3 acceptor
1 4 donor
1 5 donor
1 6 acceptor
1 7 donor
6 10 13 14 15 20 21 rings
6 12 18 19 25 26 27 rings
6 16 23 24 28 29 31 rings
6 32 34 35 36 37 38 rings

> <PUBCHEM_HEAVY_ATOM_COUNT>
38

> <PUBCHEM_ATOM_DEF_STEREO_COUNT>
0

> <PUBCHEM_ATOM_UDEF_STEREO_COUNT>
1

> <PUBCHEM_BOND_DEF_STEREO_COUNT>
0

> <PUBCHEM_BOND_UDEF_STEREO_COUNT>
0

> <PUBCHEM_ISOTOPIC_ATOM_COUNT>
0

> <PUBCHEM_COMPONENT_COUNT>
1

> <PUBCHEM_CACTVS_TAUTO_COUNT>
378

> <PUBCHEM_CONFORMER_ID>
00511D9400000002

> <PUBCHEM_MMFF94_ENERGY>
115.6363

> <PUBCHEM_FEATURE_SELFOVERLAP>
55.825

> <PUBCHEM_SHAPE_FINGERPRINT>
10074138 170 18268423710602300346
10675989 125 16962085901411431781
10764073 3 17607236563431252054
10939801 23 18116164435641775388
11112241 14 17988936526624304001
12422481 6 18261117313848444731
12677640 9 17607254443549255683
12788726 201 18124845063000419518
13782708 43 13407066029606056616
14114207 22 16516786105996256875
144659 39 18409442566823718920
15324884 4 17766608734079414231
15950262 2 16485033262500709233
16114785 44 18263904657693135366
161222 619 18130799966041395868
17913733 40 18129662993560774700
17974551 9 17461175510267008323
21033648 29 17915484837188106698
238918 7 18339655459617293391
255183 313 18411136960885401533
42767 28 12967126095182848232
4403749 210 18409721876531050068
4938544 92 17986673877913113794
5171179 24 17977673008823566743
57527358 35 14418714630954833029

> <PUBCHEM_SHAPE_MULTIPOLES>
740.94
14.48
4.96
2.8
20.83
2.5
0.74
-11.57
-12.31
-4.12
1.34
-0.19
0.75
0.5

> <PUBCHEM_SHAPE_SELFOVERLAP>
1610.099

> <PUBCHEM_SHAPE_VOLUME>
403

> <PUBCHEM_COORDINATE_TYPE>
2
5
10

$$$$
