5316024
  -OEChem-12071808393D

 55 56  0     1  0  0  0  0  0999 V2000
   -3.4739    1.5420    0.3193 O   0  0  0  0  0  0  0  0  0  0  0  0
   -4.4315   -0.3504   -0.5965 O   0  0  0  0  0  0  0  0  0  0  0  0
   -0.5604   -0.5708   -0.7856 C   0  0  1  0  0  0  0  0  0  0  0  0
   -1.1068   -0.0825    0.6084 C   0  0  2  0  0  0  0  0  0  0  0  0
   -2.5688   -0.5356    0.9328 C   0  0  1  0  0  0  0  0  0  0  0  0
    0.9712   -0.2106   -0.9228 C   0  0  1  0  0  0  0  0  0  0  0  0
   -0.7752   -2.1026   -0.8989 C   0  0  0  0  0  0  0  0  0  0  0  0
   -0.8383    1.4255    0.8275 C   0  0  0  0  0  0  0  0  0  0  0  0
   -2.7231   -2.0566    0.7054 C   0  0  0  0  0  0  0  0  0  0  0  0
   -2.2183   -2.5346   -0.6529 C   0  0  0  0  0  0  0  0  0  0  0  0
   -1.2877    0.1088   -1.9824 C   0  0  0  0  0  0  0  0  0  0  0  0
    0.6412    1.7810    0.6600 C   0  0  0  0  0  0  0  0  0  0  0  0
    1.1944    1.2671   -0.6414 C   0  0  0  0  0  0  0  0  0  0  0  0
   -2.9310   -0.2423    2.4037 C   0  0  0  0  0  0  0  0  0  0  0  0
    1.9282   -1.0390   -0.0510 C   0  0  0  0  0  0  0  0  0  0  0  0
   -3.6074    0.1996    0.1215 C   0  0  0  0  0  0  0  0  0  0  0  0
    1.8224    2.0728   -1.5121 C   0  0  0  0  0  0  0  0  0  0  0  0
    3.3521   -0.7860   -0.4364 C   0  0  0  0  0  0  0  0  0  0  0  0
    4.3561   -0.3437    0.3493 C   0  0  0  0  0  0  0  0  0  0  0  0
   -4.4019    2.3642   -0.3955 C   0  0  0  0  0  0  0  0  0  0  0  0
    4.1880   -0.0017    1.8066 C   0  0  0  0  0  0  0  0  0  0  0  0
    5.6821   -0.1657   -0.2407 C   0  0  0  0  0  0  0  0  0  0  0  0
    6.7885    0.2610    0.3817 C   0  0  0  0  0  0  0  0  0  0  0  0
   -0.4906   -0.5943    1.3641 H   0  0  0  0  0  0  0  0  0  0  0  0
    1.2454   -0.4162   -1.9695 H   0  0  0  0  0  0  0  0  0  0  0  0
   -0.1729   -2.6315   -0.1533 H   0  0  0  0  0  0  0  0  0  0  0  0
   -0.4478   -2.4619   -1.8822 H   0  0  0  0  0  0  0  0  0  0  0  0
   -1.1479    1.7423    1.8280 H   0  0  0  0  0  0  0  0  0  0  0  0
   -1.3680    2.0485    0.1040 H   0  0  0  0  0  0  0  0  0  0  0  0
   -3.7688   -2.3687    0.8250 H   0  0  0  0  0  0  0  0  0  0  0  0
   -2.1602   -2.5926    1.4822 H   0  0  0  0  0  0  0  0  0  0  0  0
   -2.2688   -3.6302   -0.6815 H   0  0  0  0  0  0  0  0  0  0  0  0
   -2.8710   -2.1886   -1.4594 H   0  0  0  0  0  0  0  0  0  0  0  0
   -2.3402   -0.1604   -2.0619 H   0  0  0  0  0  0  0  0  0  0  0  0
   -1.2360    1.2004   -1.9440 H   0  0  0  0  0  0  0  0  0  0  0  0
   -0.8289   -0.1981   -2.9306 H   0  0  0  0  0  0  0  0  0  0  0  0
    1.2146    1.3563    1.4921 H   0  0  0  0  0  0  0  0  0  0  0  0
    0.7550    2.8694    0.7362 H   0  0  0  0  0  0  0  0  0  0  0  0
   -2.2204   -0.7237    3.0852 H   0  0  0  0  0  0  0  0  0  0  0  0
   -2.9463    0.8250    2.6451 H   0  0  0  0  0  0  0  0  0  0  0  0
   -3.9297   -0.6279    2.6447 H   0  0  0  0  0  0  0  0  0  0  0  0
    1.7290   -0.8941    1.0113 H   0  0  0  0  0  0  0  0  0  0  0  0
    1.7800   -2.1076   -0.2367 H   0  0  0  0  0  0  0  0  0  0  0  0
    2.2081    1.6955   -2.4533 H   0  0  0  0  0  0  0  0  0  0  0  0
    1.9658    3.1274   -1.3025 H   0  0  0  0  0  0  0  0  0  0  0  0
    3.5749   -1.0146   -1.4794 H   0  0  0  0  0  0  0  0  0  0  0  0
   -5.4266    2.1321   -0.0905 H   0  0  0  0  0  0  0  0  0  0  0  0
   -4.2773    2.2247   -1.4736 H   0  0  0  0  0  0  0  0  0  0  0  0
   -4.1898    3.4080   -0.1499 H   0  0  0  0  0  0  0  0  0  0  0  0
    4.8494   -0.6211    2.4229 H   0  0  0  0  0  0  0  0  0  0  0  0
    4.4328    1.0521    1.9819 H   0  0  0  0  0  0  0  0  0  0  0  0
    3.1781   -0.1527    2.1895 H   0  0  0  0  0  0  0  0  0  0  0  0
    5.7792   -0.4070   -1.2982 H   0  0  0  0  0  0  0  0  0  0  0  0
    7.7188    0.3510   -0.1700 H   0  0  0  0  0  0  0  0  0  0  0  0
    6.8095    0.5288    1.4316 H   0  0  0  0  0  0  0  0  0  0  0  0
  1 16  1  0  0  0  0
  1 20  1  0  0  0  0
  2 16  2  0  0  0  0
  3  4  1  0  0  0  0
  3  6  1  0  0  0  0
  3  7  1  0  0  0  0
  3 11  1  0  0  0  0
  4  5  1  0  0  0  0
  4  8  1  0  0  0  0
  4 24  1  0  0  0  0
  5  9  1  0  0  0  0
  5 14  1  0  0  0  0
  5 16  1  0  0  0  0
  6 13  1  0  0  0  0
  6 15  1  0  0  0  0
  6 25  1  0  0  0  0
  7 10  1  0  0  0  0
  7 26  1  0  0  0  0
  7 27  1  0  0  0  0
  8 12  1  0  0  0  0
  8 28  1  0  0  0  0
  8 29  1  0  0  0  0
  9 10  1  0  0  0  0
  9 30  1  0  0  0  0
  9 31  1  0  0  0  0
 10 32  1  0  0  0  0
 10 33  1  0  0  0  0
 11 34  1  0  0  0  0
 11 35  1  0  0  0  0
 11 36  1  0  0  0  0
 12 13  1  0  0  0  0
 12 37  1  0  0  0  0
 12 38  1  0  0  0  0
 13 17  2  0  0  0  0
 14 39  1  0  0  0  0
 14 40  1  0  0  0  0
 14 41  1  0  0  0  0
 15 18  1  0  0  0  0
 15 42  1  0  0  0  0
 15 43  1  0  0  0  0
 17 44  1  0  0  0  0
 17 45  1  0  0  0  0
 18 19  2  0  0  0  0
 18 46  1  0  0  0  0
 19 21  1  0  0  0  0
 19 22  1  0  0  0  0
 20 47  1  0  0  0  0
 20 48  1  0  0  0  0
 20 49  1  0  0  0  0
 21 50  1  0  0  0  0
 21 51  1  0  0  0  0
 21 52  1  0  0  0  0
 22 23  2  0  0  0  0
 22 53  1  0  0  0  0
 23 54  1  0  0  0  0
 23 55  1  0  0  0  0
M  END
> <PUBCHEM_COMPOUND_CID>
5316024

> <PUBCHEM_CONFORMER_RMSD>
0.8

> <PUBCHEM_CONFORMER_DIVERSEORDER>
1
4
5
2
3

> <PUBCHEM_MMFF94_PARTIAL_CHARGES>
21
1 -0.43
12 0.14
13 -0.28
15 0.14
16 0.66
17 -0.3
18 -0.29
19 -0.14
2 -0.57
20 0.28
21 0.14
22 -0.15
23 -0.3
44 0.15
45 0.15
46 0.15
5 0.06
53 0.15
54 0.15
55 0.15
6 0.14

> <PUBCHEM_EFFECTIVE_ROTOR_COUNT>
6.4

> <PUBCHEM_PHARMACOPHORE_FEATURES>
5
1 2 acceptor
1 21 hydrophobe
1 23 hydrophobe
6 3 4 5 7 9 10 rings
6 3 4 6 8 12 13 rings

> <PUBCHEM_HEAVY_ATOM_COUNT>
23

> <PUBCHEM_ATOM_DEF_STEREO_COUNT>
4

> <PUBCHEM_ATOM_UDEF_STEREO_COUNT>
0

> <PUBCHEM_BOND_DEF_STEREO_COUNT>
1

> <PUBCHEM_BOND_UDEF_STEREO_COUNT>
0

> <PUBCHEM_ISOTOPIC_ATOM_COUNT>
0

> <PUBCHEM_COMPONENT_COUNT>
1

> <PUBCHEM_CACTVS_TAUTO_COUNT>
1

> <PUBCHEM_CONFORMER_ID>
00511DB800000001

> <PUBCHEM_MMFF94_ENERGY>
70.429

> <PUBCHEM_FEATURE_SELFOVERLAP>
25.387

> <PUBCHEM_SHAPE_FINGERPRINT>
10366900 7 17132112416692656074
10863032 1 17531546380801512973
10906281 52 18057903371643352393
11045977 3 17846492656446934816
11315181 36 18113619010404054358
11578080 2 13541369097946566409
12011746 2 17632291246841634160
12077114 3 18411141316372408597
12236239 1 18187085053531531150
12403814 3 17676201359997943302
12633257 1 18337689588819322483
12788726 201 17822562790754217032
12969540 114 18057870377561848109
13140716 1 18199478829402536323
13214271 11 18202282515576689270
13583140 156 17775564269045209970
14251764 30 9006184964203359333
14713325 29 8790895089889275815
16945 1 18265355965918335935
17349148 13 17917711322490474565
17980427 23 18410863135430620197
1813 80 18187092762987395510
19489759 90 18412541003032406449
19784866 170 18272091578587607174
20511986 3 18113890559959627552
20600515 1 17632034012629064224
21033648 144 14907600338382990392
21033648 29 18060125523265742616
23402539 116 18060412495647519972
23559900 14 18130233653687289678
23622692 118 18197493137410349799
23622692 88 18408886252109395463
2748010 2 17836672733057061775
3286 77 17023763336376488082
339767 52 18334856130401566610
34934 24 18261671472135692986
350125 39 18338802329009738447
474 4 12607414303683232266

> <PUBCHEM_SHAPE_MULTIPOLES>
461.59
10.54
2.22
1.6
15.1
0.08
0.35
0.87
2.29
-2.19
-0.49
-0.45
0.06
-0.09

> <PUBCHEM_SHAPE_SELFOVERLAP>
945.834

> <PUBCHEM_SHAPE_VOLUME>
264.2

> <PUBCHEM_COORDINATE_TYPE>
2
5
10

$$$$
