54580480
  -OEChem-12071808413D

106110  0     1  0  0  0  0  0999 V2000
    3.3850   -0.9000   -2.6658 O   0  0  0  0  0  0  0  0  0  0  0  0
   -5.1168    0.9252   -0.3029 O   0  0  0  0  0  0  0  0  0  0  0  0
    5.7216   -0.6996   -2.3739 O   0  0  0  0  0  0  0  0  0  0  0  0
   -5.6332   -1.3445   -0.1423 O   0  0  0  0  0  0  0  0  0  0  0  0
   -7.6548    1.5567    0.7774 O   0  0  0  0  0  0  0  0  0  0  0  0
   -9.6453   -0.5395    0.2074 O   0  0  0  0  0  0  0  0  0  0  0  0
   -8.6280   -3.1355    0.9702 O   0  0  0  0  0  0  0  0  0  0  0  0
   -6.1452   -3.7481   -1.4267 O   0  0  0  0  0  0  0  0  0  0  0  0
    1.5918    1.6255    0.3431 C   0  0  1  0  0  0  0  0  0  0  0  0
    2.9245    0.8112    0.7007 C   0  0  1  0  0  0  0  0  0  0  0  0
    0.6666    0.6821   -0.5386 C   0  0  1  0  0  0  0  0  0  0  0  0
   -0.8105    1.2116   -0.8151 C   0  0  2  0  0  0  0  0  0  0  0  0
    3.6317    0.3817   -0.6149 C   0  0  1  0  0  0  0  0  0  0  0  0
   -1.4512    1.5498    0.5876 C   0  0  1  0  0  0  0  0  0  0  0  0
    0.8201    2.0322    1.6248 C   0  0  0  0  0  0  0  0  0  0  0  0
    1.4178    0.1343   -1.7815 C   0  0  0  0  0  0  0  0  0  0  0  0
    5.0262   -0.1037   -0.1710 C   0  0  2  0  0  0  0  0  0  0  0  0
    2.7520   -0.5561   -1.4384 C   0  0  1  0  0  0  0  0  0  0  0  0
    4.0796    1.5919    1.3646 C   0  0  0  0  0  0  0  0  0  0  0  0
   -0.5946    2.5690    1.3701 C   0  0  0  0  0  0  0  0  0  0  0  0
   -2.9999    1.8444    0.5893 C   0  0  0  0  0  0  0  0  0  0  0  0
    5.3381    0.7527    1.0799 C   0  0  0  0  0  0  0  0  0  0  0  0
   -1.6487    0.0597   -1.4504 C   0  0  0  0  0  0  0  0  0  0  0  0
    1.9493    2.9435   -0.4029 C   0  0  0  0  0  0  0  0  0  0  0  0
    2.6302   -0.4120    1.6328 C   0  0  0  0  0  0  0  0  0  0  0  0
   -0.8213    2.3962   -1.8097 C   0  0  0  0  0  0  0  0  0  0  0  0
   -3.7257    0.6620   -0.1210 C   0  0  2  0  0  0  0  0  0  0  0  0
   -3.1512    0.3252   -1.4921 C   0  0  0  0  0  0  0  0  0  0  0  0
    6.1127    0.0635   -1.2296 C   0  0  1  0  0  0  0  0  0  0  0  0
   -3.5177    1.8991    2.0542 C   0  0  0  0  0  0  0  0  0  0  0  0
   -3.3786    3.1975   -0.0448 C   0  0  0  0  0  0  0  0  0  0  0  0
    7.4957   -0.4217   -0.7422 C   0  0  0  0  0  0  0  0  0  0  0  0
    6.1994    1.5342   -1.6553 C   0  0  0  0  0  0  0  0  0  0  0  0
    7.5258   -1.8831   -0.2770 C   0  0  0  0  0  0  0  0  0  0  0  0
   -5.9201   -0.0448    0.3685 C   0  0  2  0  0  0  0  0  0  0  0  0
   -7.3871    0.3129    0.1303 C   0  0  1  0  0  0  0  0  0  0  0  0
    8.8844   -2.2543    0.2504 C   0  0  0  0  0  0  0  0  0  0  0  0
   -8.3194   -0.7614    0.6904 C   0  0  2  0  0  0  0  0  0  0  0  0
   -6.3890   -2.3679    0.5077 C   0  0  1  0  0  0  0  0  0  0  0  0
   -7.8828   -2.1583    0.2483 C   0  0  1  0  0  0  0  0  0  0  0  0
    9.3534   -2.0878    1.5015 C   0  0  0  0  0  0  0  0  0  0  0  0
   -5.9051   -3.7101   -0.0318 C   0  0  0  0  0  0  0  0  0  0  0  0
   10.7265   -2.4817    1.9674 C   0  0  0  0  0  0  0  0  0  0  0  0
    8.4937   -1.4520    2.5610 C   0  0  0  0  0  0  0  0  0  0  0  0
    0.4849   -0.2105    0.0730 H   0  0  0  0  0  0  0  0  0  0  0  0
    3.7741    1.2725   -1.2271 H   0  0  0  0  0  0  0  0  0  0  0  0
   -1.3654    0.6158    1.1693 H   0  0  0  0  0  0  0  0  0  0  0  0
    1.3925    2.7795    2.1886 H   0  0  0  0  0  0  0  0  0  0  0  0
    0.7045    1.1728    2.2928 H   0  0  0  0  0  0  0  0  0  0  0  0
    1.6068    0.9294   -2.5109 H   0  0  0  0  0  0  0  0  0  0  0  0
    0.7995   -0.5980   -2.3121 H   0  0  0  0  0  0  0  0  0  0  0  0
    4.9325   -1.1602    0.1019 H   0  0  0  0  0  0  0  0  0  0  0  0
    2.5675   -1.4904   -0.8978 H   0  0  0  0  0  0  0  0  0  0  0  0
    3.9308    1.7484    2.4381 H   0  0  0  0  0  0  0  0  0  0  0  0
    4.2368    2.5740    0.9123 H   0  0  0  0  0  0  0  0  0  0  0  0
   -1.0316    2.7638    2.3541 H   0  0  0  0  0  0  0  0  0  0  0  0
   -0.5594    3.5376    0.8655 H   0  0  0  0  0  0  0  0  0  0  0  0
    6.2230    1.3906    1.0312 H   0  0  0  0  0  0  0  0  0  0  0  0
    5.5143    0.0791    1.9275 H   0  0  0  0  0  0  0  0  0  0  0  0
   -1.4836   -0.8690   -0.8882 H   0  0  0  0  0  0  0  0  0  0  0  0
   -1.3146   -0.1353   -2.4763 H   0  0  0  0  0  0  0  0  0  0  0  0
    2.3838    2.7782   -1.3908 H   0  0  0  0  0  0  0  0  0  0  0  0
    2.6447    3.5607    0.1717 H   0  0  0  0  0  0  0  0  0  0  0  0
    1.0890    3.5932   -0.5523 H   0  0  0  0  0  0  0  0  0  0  0  0
    3.4968   -1.0659    1.7671 H   0  0  0  0  0  0  0  0  0  0  0  0
    2.3558   -0.0816    2.6401 H   0  0  0  0  0  0  0  0  0  0  0  0
    1.8312   -1.0584    1.2674 H   0  0  0  0  0  0  0  0  0  0  0  0
   -0.7994    3.3679   -1.3143 H   0  0  0  0  0  0  0  0  0  0  0  0
   -1.7101    2.4063   -2.4456 H   0  0  0  0  0  0  0  0  0  0  0  0
    0.0197    2.3602   -2.5063 H   0  0  0  0  0  0  0  0  0  0  0  0
   -3.5752   -0.2261    0.5114 H   0  0  0  0  0  0  0  0  0  0  0  0
   -3.3965    1.1147   -2.2107 H   0  0  0  0  0  0  0  0  0  0  0  0
   -3.6553   -0.5663   -1.8872 H   0  0  0  0  0  0  0  0  0  0  0  0
   -4.6092    1.9859    2.0898 H   0  0  0  0  0  0  0  0  0  0  0  0
   -4.4339    3.4355    0.1366 H   0  0  0  0  0  0  0  0  0  0  0  0
   -3.2467    3.2107   -1.1271 H   0  0  0  0  0  0  0  0  0  0  0  0
   -3.1282    2.7668    2.5954 H   0  0  0  0  0  0  0  0  0  0  0  0
   -3.2382    0.9971    2.6095 H   0  0  0  0  0  0  0  0  0  0  0  0
   -2.7931    4.0192    0.3794 H   0  0  0  0  0  0  0  0  0  0  0  0
    2.7941   -1.5073   -3.1428 H   0  0  0  0  0  0  0  0  0  0  0  0
    8.2133   -0.3244   -1.5693 H   0  0  0  0  0  0  0  0  0  0  0  0
    7.8664    0.2316    0.0567 H   0  0  0  0  0  0  0  0  0  0  0  0
    7.0776    1.6711   -2.3009 H   0  0  0  0  0  0  0  0  0  0  0  0
    6.3087    2.2499   -0.8388 H   0  0  0  0  0  0  0  0  0  0  0  0
    5.3637    1.8407   -2.2923 H   0  0  0  0  0  0  0  0  0  0  0  0
    6.4007   -0.5806   -3.0596 H   0  0  0  0  0  0  0  0  0  0  0  0
    7.2890   -2.5458   -1.1184 H   0  0  0  0  0  0  0  0  0  0  0  0
    6.7704   -2.0937    0.4839 H   0  0  0  0  0  0  0  0  0  0  0  0
   -5.6890   -0.0087    1.4413 H   0  0  0  0  0  0  0  0  0  0  0  0
   -7.5755    0.4658   -0.9389 H   0  0  0  0  0  0  0  0  0  0  0  0
    9.5522   -2.7009   -0.4848 H   0  0  0  0  0  0  0  0  0  0  0  0
   -8.3783   -0.6981    1.7833 H   0  0  0  0  0  0  0  0  0  0  0  0
   -6.1757   -2.3458    1.5847 H   0  0  0  0  0  0  0  0  0  0  0  0
   -8.1208   -2.2872   -0.8141 H   0  0  0  0  0  0  0  0  0  0  0  0
   -7.4856    1.4445    1.7284 H   0  0  0  0  0  0  0  0  0  0  0  0
   -4.8267   -3.8163    0.1249 H   0  0  0  0  0  0  0  0  0  0  0  0
   -6.4213   -4.5486    0.4453 H   0  0  0  0  0  0  0  0  0  0  0  0
   -9.6223   -0.5679   -0.7643 H   0  0  0  0  0  0  0  0  0  0  0  0
   -8.4237   -3.0315    1.9153 H   0  0  0  0  0  0  0  0  0  0  0  0
    9.0094   -0.5832    2.9849 H   0  0  0  0  0  0  0  0  0  0  0  0
    7.5229   -1.1011    2.2116 H   0  0  0  0  0  0  0  0  0  0  0  0
    8.3114   -2.1673    3.3703 H   0  0  0  0  0  0  0  0  0  0  0  0
   11.3101   -2.9381    1.1611 H   0  0  0  0  0  0  0  0  0  0  0  0
   10.6586   -3.2077    2.7838 H   0  0  0  0  0  0  0  0  0  0  0  0
   11.2759   -1.6041    2.3229 H   0  0  0  0  0  0  0  0  0  0  0  0
   -5.8229   -4.6067   -1.7500 H   0  0  0  0  0  0  0  0  0  0  0  0
  1 18  1  0  0  0  0
  1 80  1  0  0  0  0
  2 27  1  0  0  0  0
  2 35  1  0  0  0  0
  3 29  1  0  0  0  0
  3 86  1  0  0  0  0
  4 35  1  0  0  0  0
  4 39  1  0  0  0  0
  5 36  1  0  0  0  0
  5 95  1  0  0  0  0
  6 38  1  0  0  0  0
  6 98  1  0  0  0  0
  7 40  1  0  0  0  0
  7 99  1  0  0  0  0
  8 42  1  0  0  0  0
  8106  1  0  0  0  0
  9 10  1  0  0  0  0
  9 11  1  0  0  0  0
  9 15  1  0  0  0  0
  9 24  1  0  0  0  0
 10 13  1  0  0  0  0
 10 19  1  0  0  0  0
 10 25  1  0  0  0  0
 11 12  1  0  0  0  0
 11 16  1  0  0  0  0
 11 45  1  0  0  0  0
 12 14  1  0  0  0  0
 12 23  1  0  0  0  0
 12 26  1  0  0  0  0
 13 17  1  0  0  0  0
 13 18  1  0  0  0  0
 13 46  1  0  0  0  0
 14 20  1  0  0  0  0
 14 21  1  0  0  0  0
 14 47  1  0  0  0  0
 15 20  1  0  0  0  0
 15 48  1  0  0  0  0
 15 49  1  0  0  0  0
 16 18  1  0  0  0  0
 16 50  1  0  0  0  0
 16 51  1  0  0  0  0
 17 22  1  0  0  0  0
 17 29  1  0  0  0  0
 17 52  1  0  0  0  0
 18 53  1  0  0  0  0
 19 22  1  0  0  0  0
 19 54  1  0  0  0  0
 19 55  1  0  0  0  0
 20 56  1  0  0  0  0
 20 57  1  0  0  0  0
 21 27  1  0  0  0  0
 21 30  1  0  0  0  0
 21 31  1  0  0  0  0
 22 58  1  0  0  0  0
 22 59  1  0  0  0  0
 23 28  1  0  0  0  0
 23 60  1  0  0  0  0
 23 61  1  0  0  0  0
 24 62  1  0  0  0  0
 24 63  1  0  0  0  0
 24 64  1  0  0  0  0
 25 65  1  0  0  0  0
 25 66  1  0  0  0  0
 25 67  1  0  0  0  0
 26 68  1  0  0  0  0
 26 69  1  0  0  0  0
 26 70  1  0  0  0  0
 27 28  1  0  0  0  0
 27 71  1  0  0  0  0
 28 72  1  0  0  0  0
 28 73  1  0  0  0  0
 29 32  1  0  0  0  0
 29 33  1  0  0  0  0
 30 74  1  0  0  0  0
 30 77  1  0  0  0  0
 30 78  1  0  0  0  0
 31 75  1  0  0  0  0
 31 76  1  0  0  0  0
 31 79  1  0  0  0  0
 32 34  1  0  0  0  0
 32 81  1  0  0  0  0
 32 82  1  0  0  0  0
 33 83  1  0  0  0  0
 33 84  1  0  0  0  0
 33 85  1  0  0  0  0
 34 37  1  0  0  0  0
 34 87  1  0  0  0  0
 34 88  1  0  0  0  0
 35 36  1  0  0  0  0
 35 89  1  0  0  0  0
 36 38  1  0  0  0  0
 36 90  1  0  0  0  0
 37 41  2  0  0  0  0
 37 91  1  0  0  0  0
 38 40  1  0  0  0  0
 38 92  1  0  0  0  0
 39 40  1  0  0  0  0
 39 42  1  0  0  0  0
 39 93  1  0  0  0  0
 40 94  1  0  0  0  0
 41 43  1  0  0  0  0
 41 44  1  0  0  0  0
 42 96  1  0  0  0  0
 42 97  1  0  0  0  0
 43103  1  0  0  0  0
 43104  1  0  0  0  0
 43105  1  0  0  0  0
 44100  1  0  0  0  0
 44101  1  0  0  0  0
 44102  1  0  0  0  0
M  END
> <PUBCHEM_COMPOUND_CID>
54580480

> <PUBCHEM_CONFORMER_RMSD>
1.2

> <PUBCHEM_CONFORMER_DIVERSEORDER>
2
33
47
14
45
32
42
67
66
23
34
54
46
55
59
43
63
10
16
19
5
36
26
51
30
49
4
25
58
29
3
6
64
20
61
15
41
48
12
44
28
27
37
57
40
11
56
21
17
62
65
52
39
9
60
53
35
31
18
38
8
50
7
22
13
24
1

> <PUBCHEM_MMFF94_PARTIAL_CHARGES>
29
1 -0.68
106 0.4
18 0.28
2 -0.56
27 0.28
29 0.28
3 -0.68
34 0.14
35 0.56
36 0.28
37 -0.29
38 0.28
39 0.28
4 -0.56
40 0.28
41 -0.28
42 0.28
43 0.14
44 0.14
5 -0.68
6 -0.68
7 -0.68
8 -0.68
80 0.4
86 0.4
91 0.15
95 0.4
98 0.4
99 0.4

> <PUBCHEM_EFFECTIVE_ROTOR_COUNT>
10.4

> <PUBCHEM_PHARMACOPHORE_FEATURES>
21
1 1 acceptor
1 1 donor
1 2 acceptor
1 3 acceptor
1 3 donor
1 4 acceptor
1 5 acceptor
1 5 donor
1 6 acceptor
1 6 donor
1 7 acceptor
1 7 donor
1 8 acceptor
1 8 donor
3 21 30 31 hydrophobe
3 41 43 44 hydrophobe
5 10 13 17 19 22 rings
6 12 14 21 23 27 28 rings
6 4 35 36 38 39 40 rings
6 9 10 11 13 16 18 rings
6 9 11 12 14 15 20 rings

> <PUBCHEM_HEAVY_ATOM_COUNT>
44

> <PUBCHEM_ATOM_DEF_STEREO_COUNT>
15

> <PUBCHEM_ATOM_UDEF_STEREO_COUNT>
0

> <PUBCHEM_BOND_DEF_STEREO_COUNT>
0

> <PUBCHEM_BOND_UDEF_STEREO_COUNT>
0

> <PUBCHEM_ISOTOPIC_ATOM_COUNT>
0

> <PUBCHEM_COMPONENT_COUNT>
1

> <PUBCHEM_CACTVS_TAUTO_COUNT>
1

> <PUBCHEM_CONFORMER_ID>
0340D50000000002

> <PUBCHEM_MMFF94_ENERGY>
192.7981

> <PUBCHEM_FEATURE_SELFOVERLAP>
106.795

> <PUBCHEM_SHAPE_FINGERPRINT>
10533779 47 16773253828889055175
11135609 12 18131073765826788589
11135609 99 18272376407965294933
11409948 41 16298659492105005034
11456790 92 17060619997005453450
11534866 41 18271241626636646978
11578821 258 11383243359519441090
117089 54 17486796098606222486
12539765 74 10592040272544500748
13150687 139 15068628175726108912
13782708 43 18411136965222651101
13811026 1 18272091582280953831
14068700 675 18261398879784951013
14117953 113 12324247173940012366
14931854 50 13695585538470841732
15064986 266 14779548920689741549
15183329 4 14273730777275148061
15198563 99 15140954024383148255
15347590 135 16917065521738333322
18608769 82 18272093820312499351
19303781 99 18341602750328050678
19611394 137 17917715734123819905
19841028 212 18409450319245015056
20105231 36 16773529810496911316
2026 5 17750229211098271058
20737093 207 17896308135805518098
21057603 130 18040432154550086506
21267235 1 17775293750324733068
21781051 124 18131360713272121862
21895431 317 17313938612304112434
21987483 16 18409727401024037840
22149856 69 16845308094416518208
23576562 1 11603695431691289018
24771293 8 11527945660237256875
2747138 104 17417818318626622816
3178227 256 17346877850014345876
3383291 50 18060700589121880751
4149490 64 18410849980926383248
4173938 306 13985218998312032677
4339292 15 18335697221893744860
439807 62 18412549807562415023
4516262 110 11311787129368565601
4616759 239 17704077287715357107
4625314 4 18335421274735707845
504579 68 14273742841637504170
5937810 71 11170183230019254895
9896288 288 17845665737904065977
9962374 69 17703502294330674605

> <PUBCHEM_SHAPE_MULTIPOLES>
858.54
31.22
3.58
2.05
8.12
1.81
0.19
33.61
-10.43
-4
-0.58
3.5
0.02
-2.53

> <PUBCHEM_SHAPE_SELFOVERLAP>
1789.041

> <PUBCHEM_SHAPE_VOLUME>
484.8

> <PUBCHEM_COORDINATE_TYPE>
2
5
10

$$$$
