25201828
  -OEChem-12071808493D

 19 18  0     1  0  0  0  0  0999 V2000
   -3.2118    0.7333   -1.1130 O   0  5  0  0  0  0  0  0  0  0  0  0
   -2.5528    1.2629    1.0061 O   0  0  0  0  0  0  0  0  0  0  0  0
    2.0357   -1.5473    0.2690 O   0  0  0  0  0  0  0  0  0  0  0  0
    3.7679    0.1573   -0.5090 O   0  5  0  0  0  0  0  0  0  0  0  0
    2.2208    1.8113   -0.2482 O   0  0  0  0  0  0  0  0  0  0  0  0
   -1.5512   -1.4505   -1.1853 N   0  3  0  0  0  0  0  0  0  0  0  0
    0.3372    0.0223    0.5873 N   0  0  0  0  0  0  0  0  0  0  0  0
   -1.9333   -0.8468    0.1317 C   0  0  1  0  0  0  0  0  0  0  0  0
   -0.7020   -0.8665    1.0353 C   0  0  0  0  0  0  0  0  0  0  0  0
   -2.6433    0.5118   -0.0078 C   0  0  0  0  0  0  0  0  0  0  0  0
    1.6083   -0.4002    0.2460 C   0  0  0  0  0  0  0  0  0  0  0  0
    2.6246    0.6125   -0.2121 C   0  0  0  0  0  0  0  0  0  0  0  0
   -2.6773   -1.5382    0.5460 H   0  0  0  0  0  0  0  0  0  0  0  0
   -0.9713   -0.5419    2.0466 H   0  0  0  0  0  0  0  0  0  0  0  0
   -0.3083   -1.8858    1.1231 H   0  0  0  0  0  0  0  0  0  0  0  0
   -2.3659   -1.5288   -1.8085 H   0  0  0  0  0  0  0  0  0  0  0  0
   -1.1615   -2.3958   -1.0710 H   0  0  0  0  0  0  0  0  0  0  0  0
   -0.8460   -0.8789   -1.6694 H   0  0  0  0  0  0  0  0  0  0  0  0
    0.1321    1.0166    0.5511 H   0  0  0  0  0  0  0  0  0  0  0  0
  1 10  1  0  0  0  0
  2 10  2  0  0  0  0
  3 11  2  0  0  0  0
  4 12  1  0  0  0  0
  5 12  2  0  0  0  0
  6  8  1  0  0  0  0
  6 16  1  0  0  0  0
  6 17  1  0  0  0  0
  6 18  1  0  0  0  0
  7  9  1  0  0  0  0
  7 11  1  0  0  0  0
  7 19  1  0  0  0  0
  8  9  1  0  0  0  0
  8 10  1  0  0  0  0
  8 13  1  0  0  0  0
  9 14  1  0  0  0  0
  9 15  1  0  0  0  0
 11 12  1  0  0  0  0
M  CHG  3   1  -1   4  -1   6   1
M  END
> <PUBCHEM_COMPOUND_CID>
25201828

> <PUBCHEM_CONFORMER_RMSD>
0.6

> <PUBCHEM_CONFORMER_DIVERSEORDER>
1
7
10
15
12
19
14
8
20
6
22
21
18
23
4
17
3
2
9
13
16
11
5

> <PUBCHEM_MMFF94_PARTIAL_CHARGES>
16
1 -0.9
10 0.91
11 0.48
12 0.95
16 0.45
17 0.45
18 0.45
19 0.37
2 -0.9
3 -0.57
4 -0.9
5 -0.9
6 -0.85
7 -0.73
8 0.4
9 0.3

> <PUBCHEM_EFFECTIVE_ROTOR_COUNT>
5

> <PUBCHEM_PHARMACOPHORE_FEATURES>
10
1 1 acceptor
1 2 acceptor
1 3 acceptor
1 4 acceptor
1 5 acceptor
1 6 cation
1 6 donor
1 7 donor
3 1 2 10 anion
3 4 5 12 anion

> <PUBCHEM_HEAVY_ATOM_COUNT>
12

> <PUBCHEM_ATOM_DEF_STEREO_COUNT>
1

> <PUBCHEM_ATOM_UDEF_STEREO_COUNT>
0

> <PUBCHEM_BOND_DEF_STEREO_COUNT>
0

> <PUBCHEM_BOND_UDEF_STEREO_COUNT>
0

> <PUBCHEM_ISOTOPIC_ATOM_COUNT>
0

> <PUBCHEM_COMPONENT_COUNT>
1

> <PUBCHEM_CACTVS_TAUTO_COUNT>
2

> <PUBCHEM_CONFORMER_ID>
01808CA400000001

> <PUBCHEM_MMFF94_ENERGY>
12.3587

> <PUBCHEM_FEATURE_SELFOVERLAP>
50.874

> <PUBCHEM_SHAPE_FINGERPRINT>
10857977 72 14634881824968147411
12897270 3 18272087244427223506
12932764 1 17988362666942248130
14390081 3 18261110819799727928
15310529 11 18411982489886112771
15775835 57 18261110747022797213
20645464 45 17095242518610416635
20645476 183 18272645749306245927
20653085 51 18339369578104038891
20711983 171 18059575724692136917
20711985 344 15266517122646130650
25 1 18187933837257610162
305870 269 17240755155900404994
3248919 1 18342170042578024715
63268167 104 18261391109370915073
8030462 33 18059850653885312219
93112 12 18272090521677187526

> <PUBCHEM_SHAPE_MULTIPOLES>
207.65
5.64
1.49
0.99
1.57
0.07
-0.06
1.72
-1.12
0.09
-0.04
-0.63
-0.08
-0.3

> <PUBCHEM_SHAPE_SELFOVERLAP>
405.724

> <PUBCHEM_SHAPE_VOLUME>
123.1

> <PUBCHEM_COORDINATE_TYPE>
2
5
10

$$$$
