5316944
  -OEChem-12071808463D

  9  9  0     0  0  0  0  0  0999 V2000
    1.4924    0.3993   -0.0032 S   0  0  0  0  0  0  0  0  0  0  0  0
   -1.4920    0.4006   -0.0032 S   0  0  0  0  0  0  0  0  0  0  0  0
    0.0007    1.4375    0.0038 C   0  0  0  0  0  0  0  0  0  0  0  0
    0.6669   -1.1190    0.0013 C   0  0  0  0  0  0  0  0  0  0  0  0
   -0.6680   -1.1183    0.0013 C   0  0  0  0  0  0  0  0  0  0  0  0
    0.0010    2.0675    0.8975 H   0  0  0  0  0  0  0  0  0  0  0  0
    0.0009    2.0807   -0.8803 H   0  0  0  0  0  0  0  0  0  0  0  0
    1.2372   -2.0397    0.0035 H   0  0  0  0  0  0  0  0  0  0  0  0
   -1.2392   -2.0386    0.0036 H   0  0  0  0  0  0  0  0  0  0  0  0
  1  3  1  0  0  0  0
  1  4  1  0  0  0  0
  2  3  1  0  0  0  0
  2  5  1  0  0  0  0
  3  6  1  0  0  0  0
  3  7  1  0  0  0  0
  4  5  2  0  0  0  0
  4  8  1  0  0  0  0
  5  9  1  0  0  0  0
M  END
> <PUBCHEM_COMPOUND_CID>
5316944

> <PUBCHEM_CONFORMER_RMSD>
0.4

> <PUBCHEM_CONFORMER_DIVERSEORDER>
1

> <PUBCHEM_MMFF94_PARTIAL_CHARGES>
7
1 -0.33
2 -0.33
3 0.46
4 -0.05
5 -0.05
8 0.15
9 0.15

> <PUBCHEM_EFFECTIVE_ROTOR_COUNT>
0.6

> <PUBCHEM_PHARMACOPHORE_FEATURES>
1
5 1 2 3 4 5 rings

> <PUBCHEM_HEAVY_ATOM_COUNT>
5

> <PUBCHEM_ATOM_DEF_STEREO_COUNT>
0

> <PUBCHEM_ATOM_UDEF_STEREO_COUNT>
0

> <PUBCHEM_BOND_DEF_STEREO_COUNT>
0

> <PUBCHEM_BOND_UDEF_STEREO_COUNT>
0

> <PUBCHEM_ISOTOPIC_ATOM_COUNT>
0

> <PUBCHEM_COMPONENT_COUNT>
1

> <PUBCHEM_CACTVS_TAUTO_COUNT>
1

> <PUBCHEM_CONFORMER_ID>
0051215000000001

> <PUBCHEM_MMFF94_ENERGY>
2.7258

> <PUBCHEM_FEATURE_SELFOVERLAP>
5.074

> <PUBCHEM_SHAPE_FINGERPRINT>
16714656 1 18410303531387993212
20096714 4 18411139142723363347
21015797 1 9222069661042028070
21040471 1 18410856555360789445
5943 1 17193418912471126391

> <PUBCHEM_SHAPE_MULTIPOLES>
110.6
1.8
1.57
0.65
0
0.02
0
0.19
0
0
0
0
0.01
0

> <PUBCHEM_SHAPE_SELFOVERLAP>
188.485

> <PUBCHEM_SHAPE_VOLUME>
74.5

> <PUBCHEM_COORDINATE_TYPE>
2
5
10

$$$$
