23259970
  -OEChem-12071808373D

 59 62  0     1  0  0  0  0  0999 V2000
    3.8601   -1.1627    1.4398 O   0  0  0  0  0  0  0  0  0  0  0  0
    2.9204    2.1201    0.2403 O   0  0  0  0  0  0  0  0  0  0  0  0
    0.7678   -1.1220    0.2526 C   0  0  1  0  0  0  0  0  0  0  0  0
    0.1405   -0.1763   -0.8675 C   0  0  2  0  0  0  0  0  0  0  0  0
   -1.4432   -0.1444   -0.8967 C   0  0  1  0  0  0  0  0  0  0  0  0
   -1.9201   -0.1113    0.5989 C   0  0  2  0  0  0  0  0  0  0  0  0
    1.9179   -1.9059   -0.3790 C   0  0  0  0  0  0  0  0  0  0  0  0
    2.8809   -0.7308   -0.7451 C   0  0  2  0  0  0  0  0  0  0  0  0
    1.5777   -0.2895    1.3103 C   0  0  0  0  0  0  0  0  0  0  0  0
   -0.2373   -2.0592    0.9142 C   0  0  0  0  0  0  0  0  0  0  0  0
    3.0323   -0.2236    0.7360 C   0  0  1  0  0  0  0  0  0  0  0  0
    0.8259   -0.3641   -2.2695 C   0  0  0  0  0  0  0  0  0  0  0  0
   -1.5318   -1.3906    1.3702 C   0  0  0  0  0  0  0  0  0  0  0  0
    2.3847   -0.4818   -2.1999 C   0  0  0  0  0  0  0  0  0  0  0  0
   -3.3923    0.3776    0.8840 C   0  0  0  0  0  0  0  0  0  0  0  0
   -1.8852    1.1669   -1.6114 C   0  0  0  0  0  0  0  0  0  0  0  0
   -2.0085   -1.3318   -1.7074 C   0  0  0  0  0  0  0  0  0  0  0  0
   -3.6876    1.6546    0.0616 C   0  0  0  0  0  0  0  0  0  0  0  0
   -3.3568    1.5105   -1.4172 C   0  0  0  0  0  0  0  0  0  0  0  0
    3.6945    1.1480    0.9204 C   0  0  0  0  0  0  0  0  0  0  0  0
   -3.5220    0.7594    2.3821 C   0  0  0  0  0  0  0  0  0  0  0  0
   -4.4965   -0.6655    0.6137 C   0  0  0  0  0  0  0  0  0  0  0  0
    3.4789    3.4224    0.3696 C   0  0  0  0  0  0  0  0  0  0  0  0
    0.4391    0.8434   -0.5810 H   0  0  0  0  0  0  0  0  0  0  0  0
   -1.3007    0.6813    1.0517 H   0  0  0  0  0  0  0  0  0  0  0  0
    1.6062   -2.5341   -1.2229 H   0  0  0  0  0  0  0  0  0  0  0  0
    2.3677   -2.6144    0.3302 H   0  0  0  0  0  0  0  0  0  0  0  0
    3.8725   -1.1673   -0.9471 H   0  0  0  0  0  0  0  0  0  0  0  0
    1.1330    0.7003    1.4539 H   0  0  0  0  0  0  0  0  0  0  0  0
    1.5817   -0.7896    2.2862 H   0  0  0  0  0  0  0  0  0  0  0  0
    0.2171   -2.5704    1.7735 H   0  0  0  0  0  0  0  0  0  0  0  0
   -0.4811   -2.8742    0.2234 H   0  0  0  0  0  0  0  0  0  0  0  0
    0.5629    0.4618   -2.9396 H   0  0  0  0  0  0  0  0  0  0  0  0
    0.4530   -1.2780   -2.7451 H   0  0  0  0  0  0  0  0  0  0  0  0
   -2.3223   -2.1447    1.3136 H   0  0  0  0  0  0  0  0  0  0  0  0
   -1.4291   -1.1399    2.4334 H   0  0  0  0  0  0  0  0  0  0  0  0
    2.7241   -1.2696   -2.8843 H   0  0  0  0  0  0  0  0  0  0  0  0
    2.8285    0.4570   -2.5513 H   0  0  0  0  0  0  0  0  0  0  0  0
   -1.6773    1.1075   -2.6866 H   0  0  0  0  0  0  0  0  0  0  0  0
   -1.2929    2.0120   -1.2356 H   0  0  0  0  0  0  0  0  0  0  0  0
   -3.0958   -1.3715   -1.6936 H   0  0  0  0  0  0  0  0  0  0  0  0
   -1.7368   -1.2528   -2.7661 H   0  0  0  0  0  0  0  0  0  0  0  0
   -1.6501   -2.3015   -1.3635 H   0  0  0  0  0  0  0  0  0  0  0  0
   -3.1039    2.4935    0.4651 H   0  0  0  0  0  0  0  0  0  0  0  0
   -4.7417    1.9417    0.1672 H   0  0  0  0  0  0  0  0  0  0  0  0
   -3.5703    2.4594   -1.9239 H   0  0  0  0  0  0  0  0  0  0  0  0
   -3.9982    0.7603   -1.8902 H   0  0  0  0  0  0  0  0  0  0  0  0
    4.7143    1.1270    0.5168 H   0  0  0  0  0  0  0  0  0  0  0  0
    3.7619    1.3971    1.9868 H   0  0  0  0  0  0  0  0  0  0  0  0
   -3.4251   -0.1160    3.0327 H   0  0  0  0  0  0  0  0  0  0  0  0
   -2.7557    1.4848    2.6773 H   0  0  0  0  0  0  0  0  0  0  0  0
   -4.4984    1.2126    2.5908 H   0  0  0  0  0  0  0  0  0  0  0  0
   -4.3579   -1.5784    1.1994 H   0  0  0  0  0  0  0  0  0  0  0  0
   -5.4783   -0.2646    0.8966 H   0  0  0  0  0  0  0  0  0  0  0  0
   -4.5793   -0.9450   -0.4352 H   0  0  0  0  0  0  0  0  0  0  0  0
    3.8733   -0.9052    2.3774 H   0  0  0  0  0  0  0  0  0  0  0  0
    2.8413    4.1248   -0.1737 H   0  0  0  0  0  0  0  0  0  0  0  0
    4.4829    3.4529   -0.0643 H   0  0  0  0  0  0  0  0  0  0  0  0
    3.5123    3.7215    1.4216 H   0  0  0  0  0  0  0  0  0  0  0  0
  1 11  1  0  0  0  0
  1 56  1  0  0  0  0
  2 20  1  0  0  0  0
  2 23  1  0  0  0  0
  3  4  1  0  0  0  0
  3  7  1  0  0  0  0
  3  9  1  0  0  0  0
  3 10  1  0  0  0  0
  4  5  1  0  0  0  0
  4 12  1  0  0  0  0
  4 24  1  0  0  0  0
  5  6  1  0  0  0  0
  5 16  1  0  0  0  0
  5 17  1  0  0  0  0
  6 13  1  0  0  0  0
  6 15  1  0  0  0  0
  6 25  1  0  0  0  0
  7  8  1  0  0  0  0
  7 26  1  0  0  0  0
  7 27  1  0  0  0  0
  8 11  1  0  0  0  0
  8 14  1  0  0  0  0
  8 28  1  0  0  0  0
  9 11  1  0  0  0  0
  9 29  1  0  0  0  0
  9 30  1  0  0  0  0
 10 13  1  0  0  0  0
 10 31  1  0  0  0  0
 10 32  1  0  0  0  0
 11 20  1  0  0  0  0
 12 14  1  0  0  0  0
 12 33  1  0  0  0  0
 12 34  1  0  0  0  0
 13 35  1  0  0  0  0
 13 36  1  0  0  0  0
 14 37  1  0  0  0  0
 14 38  1  0  0  0  0
 15 18  1  0  0  0  0
 15 21  1  0  0  0  0
 15 22  1  0  0  0  0
 16 19  1  0  0  0  0
 16 39  1  0  0  0  0
 16 40  1  0  0  0  0
 17 41  1  0  0  0  0
 17 42  1  0  0  0  0
 17 43  1  0  0  0  0
 18 19  1  0  0  0  0
 18 44  1  0  0  0  0
 18 45  1  0  0  0  0
 19 46  1  0  0  0  0
 19 47  1  0  0  0  0
 20 48  1  0  0  0  0
 20 49  1  0  0  0  0
 21 50  1  0  0  0  0
 21 51  1  0  0  0  0
 21 52  1  0  0  0  0
 22 53  1  0  0  0  0
 22 54  1  0  0  0  0
 22 55  1  0  0  0  0
 23 57  1  0  0  0  0
 23 58  1  0  0  0  0
 23 59  1  0  0  0  0
M  END
> <PUBCHEM_COMPOUND_CID>
23259970

> <PUBCHEM_CONFORMER_RMSD>
0.8

> <PUBCHEM_CONFORMER_DIVERSEORDER>
1
2

> <PUBCHEM_MMFF94_PARTIAL_CHARGES>
6
1 -0.68
11 0.28
2 -0.56
20 0.28
23 0.28
56 0.4

> <PUBCHEM_EFFECTIVE_ROTOR_COUNT>
4.2

> <PUBCHEM_PHARMACOPHORE_FEATURES>
7
1 1 acceptor
1 1 donor
1 2 acceptor
3 15 21 22 hydrophobe
6 3 4 5 6 10 13 rings
6 5 6 15 16 18 19 rings
8 3 4 7 8 9 11 12 14 rings

> <PUBCHEM_HEAVY_ATOM_COUNT>
23

> <PUBCHEM_ATOM_DEF_STEREO_COUNT>
6

> <PUBCHEM_ATOM_UDEF_STEREO_COUNT>
0

> <PUBCHEM_BOND_DEF_STEREO_COUNT>
0

> <PUBCHEM_BOND_UDEF_STEREO_COUNT>
0

> <PUBCHEM_ISOTOPIC_ATOM_COUNT>
0

> <PUBCHEM_COMPONENT_COUNT>
1

> <PUBCHEM_CACTVS_TAUTO_COUNT>
1

> <PUBCHEM_CONFORMER_ID>
0162EB4200000001

> <PUBCHEM_MMFF94_ENERGY>
148.4212

> <PUBCHEM_FEATURE_SELFOVERLAP>
35.553

> <PUBCHEM_SHAPE_FINGERPRINT>
10366900 7 17968938578709442325
10863032 1 16845568712304292743
11132069 177 17531249396914115831
11221954 11 18340766056677167620
11640471 11 17203320113658610676
12035759 4 14189311347602983614
12251169 10 16154277087731547183
12633257 1 18114726240373177760
12824470 246 13407660891008167137
13134695 92 17979069388685469486
13140716 1 16733557004996919893
13224815 77 18411419509888688053
13583140 156 18335132043163604647
14081887 123 17677044647162882381
14178342 30 16588578691571429913
14181834 199 16271651053645536886
14251764 38 18270399378542836265
14289901 80 18060424620688648355
14787075 74 18198339744552853987
14955137 171 16298395665037708116
15163728 17 17915195726382003396
15295992 7 18114453457740373696
15342168 16 18340491191417605921
15375462 189 12829488100094313556
16945 1 18200589181738893886
17349148 13 16587744235693084003
1813 80 16698952011359486174
18186145 218 18059022670137585355
18981168 100 18339938098487709004
19786989 88 18060421326094901846
19862831 5 14620800400809726756
20775530 9 8284832772989179736
21033648 29 17749654251751306912
21475661 188 18263914458629611589
21503847 285 18059027063767900992
21756936 100 17980198918457121804
22907989 373 17058636589814392837
23175994 123 18194683653531584630
23227448 37 18339919432744404945
23559900 14 17168428134279730127
2748010 2 16880187798310193287
3286 77 18114177510497200026
3797600 57 16372164128378813628
474 4 18271805752402772424
5081480 168 17702127801790963164
5104073 3 16588320349167710949
633830 44 17917161489704688051
90316 7 15213295279746921783

> <PUBCHEM_SHAPE_MULTIPOLES>
461.59
7.64
2.33
2.14
1.14
1.66
0.47
3.45
-2.12
-1.86
-0.16
0.58
-0.21
0.46

> <PUBCHEM_SHAPE_SELFOVERLAP>
968

> <PUBCHEM_SHAPE_VOLUME>
262.1

> <PUBCHEM_COORDINATE_TYPE>
2
5
10

$$$$
