5316980
  -OEChem-12071808403D

 73 78  0     1  0  0  0  0  0999 V2000
    4.1442    1.7463    1.7789 O   0  0  0  0  0  0  0  0  0  0  0  0
    6.9219   -2.3651   -0.0378 O   0  0  0  0  0  0  0  0  0  0  0  0
   -4.0860   -0.6064   -0.9065 N   0  0  2  0  0  0  0  0  0  0  0  0
    1.8186    0.1671   -0.5571 C   0  0  1  0  0  0  0  0  0  0  0  0
    1.6367    1.5409    0.0965 C   0  0  2  0  0  0  0  0  0  0  0  0
    3.0280   -0.6104    0.0181 C   0  0  2  0  0  0  0  0  0  0  0  0
    0.2938    2.0462   -0.4713 C   0  0  1  0  0  0  0  0  0  0  0  0
   -0.4548    0.7622   -0.9402 C   0  0  1  0  0  0  0  0  0  0  0  0
    0.4114   -0.4095   -0.4290 C   0  0  0  0  0  0  0  0  0  0  0  0
    4.2818    0.3069   -0.2141 C   0  0  1  0  0  0  0  0  0  0  0  0
    2.8551    2.4281   -0.1394 C   0  0  0  0  0  0  0  0  0  0  0  0
    4.1410    1.7399    0.3560 C   0  0  1  0  0  0  0  0  0  0  0  0
    3.2452   -1.9207   -0.7877 C   0  0  0  0  0  0  0  0  0  0  0  0
   -0.4772    2.8553    0.5727 C   0  0  0  0  0  0  0  0  0  0  0  0
   -1.9288    0.6790   -0.6165 C   0  0  0  0  0  0  0  0  0  0  0  0
    5.5819   -0.3899    0.2107 C   0  0  0  0  0  0  0  0  0  0  0  0
    2.8067   -0.9920    1.5017 C   0  0  0  0  0  0  0  0  0  0  0  0
   -2.6128    1.7304   -0.1238 C   0  0  0  0  0  0  0  0  0  0  0  0
   -1.9375    3.0427    0.1827 C   0  0  0  0  0  0  0  0  0  0  0  0
    4.5560   -2.6286   -0.4359 C   0  0  0  0  0  0  0  0  0  0  0  0
    5.7687   -1.7049   -0.5498 C   0  0  2  0  0  0  0  0  0  0  0  0
   -2.6153   -0.6320   -0.9361 C   0  0  0  0  0  0  0  0  0  0  0  0
   -4.1054    1.6522    0.1324 C   0  0  2  0  0  0  0  0  0  0  0  0
   -4.6298    0.1937    0.2020 C   0  0  2  0  0  0  0  0  0  0  0  0
   -4.3788   -0.4694    1.5698 C   0  0  0  0  0  0  0  0  0  0  0  0
   -4.6627   -1.9601   -0.9122 C   0  0  0  0  0  0  0  0  0  0  0  0
   -4.8471    2.4410   -0.9581 C   0  0  0  0  0  0  0  0  0  0  0  0
   -4.5069   -2.7208    0.4206 C   0  0  1  0  0  0  0  0  0  0  0  0
   -4.9902   -1.8708    1.6026 C   0  0  0  0  0  0  0  0  0  0  0  0
   -5.2577   -4.0512    0.3707 C   0  0  0  0  0  0  0  0  0  0  0  0
    2.0099    0.3193   -1.6320 H   0  0  0  0  0  0  0  0  0  0  0  0
    1.5196    1.4183    1.1801 H   0  0  0  0  0  0  0  0  0  0  0  0
    0.4668    2.6822   -1.3500 H   0  0  0  0  0  0  0  0  0  0  0  0
   -0.3863    0.7462   -2.0393 H   0  0  0  0  0  0  0  0  0  0  0  0
    0.1591   -0.6547    0.6090 H   0  0  0  0  0  0  0  0  0  0  0  0
    0.2806   -1.3079   -1.0404 H   0  0  0  0  0  0  0  0  0  0  0  0
    4.3655    0.4491   -1.3042 H   0  0  0  0  0  0  0  0  0  0  0  0
    2.9534    2.6446   -1.2103 H   0  0  0  0  0  0  0  0  0  0  0  0
    2.7125    3.3849    0.3765 H   0  0  0  0  0  0  0  0  0  0  0  0
    5.0039    2.3360    0.0356 H   0  0  0  0  0  0  0  0  0  0  0  0
    3.2531   -1.6955   -1.8625 H   0  0  0  0  0  0  0  0  0  0  0  0
    2.4102   -2.6133   -0.6261 H   0  0  0  0  0  0  0  0  0  0  0  0
   -0.0003    3.8325    0.7136 H   0  0  0  0  0  0  0  0  0  0  0  0
   -0.4432    2.3499    1.5472 H   0  0  0  0  0  0  0  0  0  0  0  0
    6.4399    0.2631    0.0038 H   0  0  0  0  0  0  0  0  0  0  0  0
    5.6118   -0.5651    1.2923 H   0  0  0  0  0  0  0  0  0  0  0  0
    3.6868   -1.4624    1.9485 H   0  0  0  0  0  0  0  0  0  0  0  0
    2.5584   -0.1382    2.1345 H   0  0  0  0  0  0  0  0  0  0  0  0
    1.9855   -1.7110    1.6003 H   0  0  0  0  0  0  0  0  0  0  0  0
   -2.0171    3.7031   -0.6889 H   0  0  0  0  0  0  0  0  0  0  0  0
   -2.4476    3.5432    1.0143 H   0  0  0  0  0  0  0  0  0  0  0  0
    4.5046   -3.0542    0.5736 H   0  0  0  0  0  0  0  0  0  0  0  0
    4.6965   -3.4919   -1.0984 H   0  0  0  0  0  0  0  0  0  0  0  0
    5.9540   -1.4917   -1.6097 H   0  0  0  0  0  0  0  0  0  0  0  0
   -2.3136   -0.9421   -1.9444 H   0  0  0  0  0  0  0  0  0  0  0  0
   -2.2177   -1.3784   -0.2398 H   0  0  0  0  0  0  0  0  0  0  0  0
   -4.3222    2.1306    1.0966 H   0  0  0  0  0  0  0  0  0  0  0  0
   -5.7212    0.2434    0.0752 H   0  0  0  0  0  0  0  0  0  0  0  0
    4.0904    2.6721    2.0710 H   0  0  0  0  0  0  0  0  0  0  0  0
   -4.8329    0.1342    2.3648 H   0  0  0  0  0  0  0  0  0  0  0  0
   -3.3075   -0.5290    1.7954 H   0  0  0  0  0  0  0  0  0  0  0  0
   -4.2242   -2.5459   -1.7304 H   0  0  0  0  0  0  0  0  0  0  0  0
   -5.7297   -1.8725   -1.1575 H   0  0  0  0  0  0  0  0  0  0  0  0
   -5.9285    2.4175   -0.7846 H   0  0  0  0  0  0  0  0  0  0  0  0
   -4.5430    3.4935   -0.9628 H   0  0  0  0  0  0  0  0  0  0  0  0
   -4.6568    2.0332   -1.9572 H   0  0  0  0  0  0  0  0  0  0  0  0
   -3.4471   -2.9548    0.5793 H   0  0  0  0  0  0  0  0  0  0  0  0
   -4.7356   -2.3611    2.5496 H   0  0  0  0  0  0  0  0  0  0  0  0
   -6.0841   -1.7835    1.5757 H   0  0  0  0  0  0  0  0  0  0  0  0
    7.6788   -1.7653   -0.1510 H   0  0  0  0  0  0  0  0  0  0  0  0
   -5.1236   -4.6074    1.3044 H   0  0  0  0  0  0  0  0  0  0  0  0
   -6.3316   -3.8981    0.2191 H   0  0  0  0  0  0  0  0  0  0  0  0
   -4.8857   -4.6757   -0.4483 H   0  0  0  0  0  0  0  0  0  0  0  0
  1 12  1  0  0  0  0
  1 59  1  0  0  0  0
  2 21  1  0  0  0  0
  2 70  1  0  0  0  0
  3 22  1  0  0  0  0
  3 24  1  0  0  0  0
  3 26  1  0  0  0  0
  4  5  1  0  0  0  0
  4  6  1  0  0  0  0
  4  9  1  0  0  0  0
  4 31  1  0  0  0  0
  5  7  1  0  0  0  0
  5 11  1  0  0  0  0
  5 32  1  0  0  0  0
  6 10  1  0  0  0  0
  6 13  1  0  0  0  0
  6 17  1  0  0  0  0
  7  8  1  0  0  0  0
  7 14  1  0  0  0  0
  7 33  1  0  0  0  0
  8  9  1  0  0  0  0
  8 15  1  0  0  0  0
  8 34  1  0  0  0  0
  9 35  1  0  0  0  0
  9 36  1  0  0  0  0
 10 12  1  0  0  0  0
 10 16  1  0  0  0  0
 10 37  1  0  0  0  0
 11 12  1  0  0  0  0
 11 38  1  0  0  0  0
 11 39  1  0  0  0  0
 12 40  1  0  0  0  0
 13 20  1  0  0  0  0
 13 41  1  0  0  0  0
 13 42  1  0  0  0  0
 14 19  1  0  0  0  0
 14 43  1  0  0  0  0
 14 44  1  0  0  0  0
 15 18  2  0  0  0  0
 15 22  1  0  0  0  0
 16 21  1  0  0  0  0
 16 45  1  0  0  0  0
 16 46  1  0  0  0  0
 17 47  1  0  0  0  0
 17 48  1  0  0  0  0
 17 49  1  0  0  0  0
 18 19  1  0  0  0  0
 18 23  1  0  0  0  0
 19 50  1  0  0  0  0
 19 51  1  0  0  0  0
 20 21  1  0  0  0  0
 20 52  1  0  0  0  0
 20 53  1  0  0  0  0
 21 54  1  0  0  0  0
 22 55  1  0  0  0  0
 22 56  1  0  0  0  0
 23 24  1  0  0  0  0
 23 27  1  0  0  0  0
 23 57  1  0  0  0  0
 24 25  1  0  0  0  0
 24 58  1  0  0  0  0
 25 29  1  0  0  0  0
 25 60  1  0  0  0  0
 25 61  1  0  0  0  0
 26 28  1  0  0  0  0
 26 62  1  0  0  0  0
 26 63  1  0  0  0  0
 27 64  1  0  0  0  0
 27 65  1  0  0  0  0
 27 66  1  0  0  0  0
 28 29  1  0  0  0  0
 28 30  1  0  0  0  0
 28 67  1  0  0  0  0
 29 68  1  0  0  0  0
 29 69  1  0  0  0  0
 30 71  1  0  0  0  0
 30 72  1  0  0  0  0
 30 73  1  0  0  0  0
M  END
> <PUBCHEM_COMPOUND_CID>
5316980

> <PUBCHEM_CONFORMER_RMSD>
0.8

> <PUBCHEM_CONFORMER_DIVERSEORDER>
1
2

> <PUBCHEM_MMFF94_PARTIAL_CHARGES>
15
1 -0.68
12 0.28
15 -0.28
18 -0.28
19 0.14
2 -0.68
21 0.28
22 0.41
23 0.14
24 0.27
26 0.27
3 -0.81
59 0.4
70 0.4
8 0.14

> <PUBCHEM_EFFECTIVE_ROTOR_COUNT>
3

> <PUBCHEM_PHARMACOPHORE_FEATURES>
11
1 1 acceptor
1 1 donor
1 2 acceptor
1 2 donor
1 3 cation
5 4 5 7 8 9 rings
6 3 15 18 22 23 24 rings
6 3 24 25 26 28 29 rings
6 4 5 6 10 11 12 rings
6 6 10 13 16 20 21 rings
6 7 8 14 15 18 19 rings

> <PUBCHEM_HEAVY_ATOM_COUNT>
30

> <PUBCHEM_ATOM_DEF_STEREO_COUNT>
11

> <PUBCHEM_ATOM_UDEF_STEREO_COUNT>
0

> <PUBCHEM_BOND_DEF_STEREO_COUNT>
0

> <PUBCHEM_BOND_UDEF_STEREO_COUNT>
0

> <PUBCHEM_ISOTOPIC_ATOM_COUNT>
0

> <PUBCHEM_COMPONENT_COUNT>
1

> <PUBCHEM_CACTVS_TAUTO_COUNT>
1

> <PUBCHEM_CONFORMER_ID>
0051217400000001

> <PUBCHEM_MMFF94_ENERGY>
81.4623

> <PUBCHEM_FEATURE_SELFOVERLAP>
56.066

> <PUBCHEM_SHAPE_FINGERPRINT>
10169797 241 18269014122903900446
10391435 84 18338789036307444944
10622 236 17126185168915516071
108634 29 17969509375642337170
10864689 126 18050010987006092262
11045977 3 18411134697432575789
11135609 12 18261402178103095097
11315621 136 18261114105871663660
11545043 162 18412261718399378522
11552529 35 17345466166936041551
117089 54 18338245945740553150
11796584 16 18261387797956384972
11963148 33 18121775295102605950
12107183 9 18127419955812929729
12422481 6 17489595540898297998
12596602 18 17274549861440480987
12633257 1 15913605085953268593
13103583 49 18129681763121473579
13140716 1 18343024359060666173
13544653 18 18408887373370367613
13583140 156 17845923134856388257
1361 4 18264489482622623970
13690498 29 18040720255827372087
13782708 43 18186516580176827514
14341114 176 18342740668007353388
14420673 8 18268714909358621678
14790565 3 17836081552601011156
14950920 106 17632303405904677043
15196674 1 18413103965871210540
15320467 1 16753532214627981327
15361156 5 18041574588751560429
15510800 12 17751085915049771555
15799311 1 18264510505589894798
17349148 13 16877944940396450152
17492 89 18410293657025973743
17627616 140 17749943367633723787
17844677 252 18413393132970350239
17909252 39 18341619226471781986
1813 80 17676486150800624724
18393751 57 17334479996717093521
18608769 82 18411140243052564712
18927931 339 18341899554443973799
19315092 285 17055280962638038051
19319366 153 17620758713890990797
21033648 29 16843295923417812504
21267235 1 18269841926426160780
22122407 14 16056880213286919777
221490 88 18411702071666431772
22393880 68 18114175298504561849
23522609 53 18122377668814103388
23559900 14 18339917121888904604
23569914 152 11966434140316219714
24893989 43 16474890658408331423
249057 3 18189054201273985541
25269216 80 15285644335315391019
314194 84 18198901607589360055
335352 9 18268708321127060549
3383291 50 18410856526472535283
350125 39 18343299228857697612
3737641 26 18341336664319543634
392239 28 18409737256818837163
4073 2 18408885109890635632
4616759 239 17914600667331777106
484989 97 18411709777470984454
50009960 94 18115844383638363778
508706 21 17821731662947505307
5104073 3 18273215304660658856
54583773 228 18335712650861775670
5486654 36 18334305270928685777
6431902 208 18409449206395161839
6823239 73 18411976932562019666
7495541 125 18412826859535129126
7970288 3 18338517572647092543
8863177 126 18411141346479806394
9709674 26 18408605885112830133

> <PUBCHEM_SHAPE_MULTIPOLES>
600.67
14.96
4.01
1.19
5.79
1.09
-0.35
11.16
-1.27
-2.85
-0.22
-0.54
0.15
1.65

> <PUBCHEM_SHAPE_SELFOVERLAP>
1287.632

> <PUBCHEM_SHAPE_VOLUME>
328.4

> <PUBCHEM_COORDINATE_TYPE>
2
5
10

$$$$
