5321892
  -OEChem-12071808403D

 39 40  0     1  0  0  0  0  0999 V2000
    0.4687    0.3542   -0.4725 C   0  0  1  0  0  0  0  0  0  0  0  0
    1.9450    0.0617   -0.0068 C   0  0  0  0  0  0  0  0  0  0  0  0
   -2.0085   -0.4093   -0.1175 C   0  0  0  0  0  0  0  0  0  0  0  0
   -0.5141   -0.7882   -0.1410 C   0  0  0  0  0  0  0  0  0  0  0  0
    2.3141   -1.3680   -0.4708 C   0  0  0  0  0  0  0  0  0  0  0  0
   -2.2453    0.7703    0.8740 C   0  0  0  0  0  0  0  0  0  0  0  0
   -0.0848    1.6967   -0.0030 C   0  0  0  0  0  0  0  0  0  0  0  0
   -1.0208    1.6438    1.1698 C   0  0  0  0  0  0  0  0  0  0  0  0
    1.3843   -2.4349    0.0971 C   0  0  0  0  0  0  0  0  0  0  0  0
   -0.0568   -2.0297    0.1159 C   0  0  0  0  0  0  0  0  0  0  0  0
    2.9449    1.0334   -0.6714 C   0  0  0  0  0  0  0  0  0  0  0  0
    2.1265    0.1807    1.5221 C   0  0  0  0  0  0  0  0  0  0  0  0
   -2.9568   -1.5589    0.3035 C   0  0  0  0  0  0  0  0  0  0  0  0
   -2.4454    0.0007   -1.5455 C   0  0  0  0  0  0  0  0  0  0  0  0
    0.1489    2.8474   -0.6539 C   0  0  0  0  0  0  0  0  0  0  0  0
    0.4867    0.3910   -1.5738 H   0  0  0  0  0  0  0  0  0  0  0  0
    3.3481   -1.6129   -0.1962 H   0  0  0  0  0  0  0  0  0  0  0  0
    2.2723   -1.4137   -1.5682 H   0  0  0  0  0  0  0  0  0  0  0  0
   -2.6090    0.3918    1.8391 H   0  0  0  0  0  0  0  0  0  0  0  0
   -3.0534    1.4098    0.4935 H   0  0  0  0  0  0  0  0  0  0  0  0
   -0.4868    1.2379    2.0372 H   0  0  0  0  0  0  0  0  0  0  0  0
   -1.3567    2.6435    1.4713 H   0  0  0  0  0  0  0  0  0  0  0  0
    1.6865   -2.6863    1.1207 H   0  0  0  0  0  0  0  0  0  0  0  0
    1.4932   -3.3517   -0.4943 H   0  0  0  0  0  0  0  0  0  0  0  0
   -0.7426   -2.8332    0.3641 H   0  0  0  0  0  0  0  0  0  0  0  0
    3.9791    0.7389   -0.4572 H   0  0  0  0  0  0  0  0  0  0  0  0
    2.8247    1.0440   -1.7604 H   0  0  0  0  0  0  0  0  0  0  0  0
    2.8251    2.0579   -0.3058 H   0  0  0  0  0  0  0  0  0  0  0  0
    3.1304   -0.1427    1.8209 H   0  0  0  0  0  0  0  0  0  0  0  0
    2.0103    1.2164    1.8596 H   0  0  0  0  0  0  0  0  0  0  0  0
    1.4074   -0.4288    2.0777 H   0  0  0  0  0  0  0  0  0  0  0  0
   -2.7157   -1.9342    1.3048 H   0  0  0  0  0  0  0  0  0  0  0  0
   -3.9989   -1.2177    0.3285 H   0  0  0  0  0  0  0  0  0  0  0  0
   -2.9091   -2.4004   -0.3974 H   0  0  0  0  0  0  0  0  0  0  0  0
   -2.2540   -0.8069   -2.2623 H   0  0  0  0  0  0  0  0  0  0  0  0
   -3.5186    0.2232   -1.5806 H   0  0  0  0  0  0  0  0  0  0  0  0
   -1.9259    0.8924   -1.9088 H   0  0  0  0  0  0  0  0  0  0  0  0
    0.7788    2.8789   -1.5362 H   0  0  0  0  0  0  0  0  0  0  0  0
   -0.2924    3.7823   -0.3254 H   0  0  0  0  0  0  0  0  0  0  0  0
  1  2  1  0  0  0  0
  1  4  1  0  0  0  0
  1  7  1  0  0  0  0
  1 16  1  0  0  0  0
  2  5  1  0  0  0  0
  2 11  1  0  0  0  0
  2 12  1  0  0  0  0
  3  4  1  0  0  0  0
  3  6  1  0  0  0  0
  3 13  1  0  0  0  0
  3 14  1  0  0  0  0
  4 10  2  0  0  0  0
  5  9  1  0  0  0  0
  5 17  1  0  0  0  0
  5 18  1  0  0  0  0
  6  8  1  0  0  0  0
  6 19  1  0  0  0  0
  6 20  1  0  0  0  0
  7  8  1  0  0  0  0
  7 15  2  0  0  0  0
  8 21  1  0  0  0  0
  8 22  1  0  0  0  0
  9 10  1  0  0  0  0
  9 23  1  0  0  0  0
  9 24  1  0  0  0  0
 10 25  1  0  0  0  0
 11 26  1  0  0  0  0
 11 27  1  0  0  0  0
 11 28  1  0  0  0  0
 12 29  1  0  0  0  0
 12 30  1  0  0  0  0
 12 31  1  0  0  0  0
 13 32  1  0  0  0  0
 13 33  1  0  0  0  0
 13 34  1  0  0  0  0
 14 35  1  0  0  0  0
 14 36  1  0  0  0  0
 14 37  1  0  0  0  0
 15 38  1  0  0  0  0
 15 39  1  0  0  0  0
M  END
> <PUBCHEM_COMPOUND_CID>
5321892

> <PUBCHEM_CONFORMER_RMSD>
0.6

> <PUBCHEM_CONFORMER_DIVERSEORDER>
1
2
8
4
7
9
3
6
5

> <PUBCHEM_MMFF94_PARTIAL_CHARGES>
11
1 0.28
10 -0.29
15 -0.3
25 0.15
3 0.14
38 0.15
39 0.15
4 -0.28
7 -0.28
8 0.14
9 0.14

> <PUBCHEM_EFFECTIVE_ROTOR_COUNT>
1.2

> <PUBCHEM_PHARMACOPHORE_FEATURES>
4
3 2 11 12 hydrophobe
3 3 13 14 hydrophobe
6 1 2 4 5 9 10 rings
6 1 3 4 6 7 8 rings

> <PUBCHEM_HEAVY_ATOM_COUNT>
15

> <PUBCHEM_ATOM_DEF_STEREO_COUNT>
0

> <PUBCHEM_ATOM_UDEF_STEREO_COUNT>
1

> <PUBCHEM_BOND_DEF_STEREO_COUNT>
0

> <PUBCHEM_BOND_UDEF_STEREO_COUNT>
0

> <PUBCHEM_ISOTOPIC_ATOM_COUNT>
0

> <PUBCHEM_COMPONENT_COUNT>
1

> <PUBCHEM_CACTVS_TAUTO_COUNT>
1

> <PUBCHEM_CONFORMER_ID>
005134A400000001

> <PUBCHEM_MMFF94_ENERGY>
42.3649

> <PUBCHEM_FEATURE_SELFOVERLAP>
20.323

> <PUBCHEM_SHAPE_FINGERPRINT>
10967382 1 18410301306288887727
11206711 2 18122629353501198310
12382932 28 18410851049212644827
12423570 1 16188409278626885349
12524768 44 18411417306401679530
12932764 1 17203610397428687543
13140716 1 18339082570935488843
13172582 1 18338225093615243466
13380536 237 17692217791392795560
14178342 30 18413102888002932275
14614273 12 18266167340716552364
14617773 55 17987799601008638521
14761567 1 17333089131771448485
14817 1 10509943990292372581
15001771 113 18340492140520715859
15775835 57 18058458603429188408
16945 1 17845644966713916506
17775402 16 18336818758076891741
193761 8 18049443638963188382
20511035 2 17839167516218513036
21501502 16 18198345052794710842
22802520 49 18057071075900921838
2334 1 18411703183688421447
23388829 49 18270963560950384817
23402539 116 18270958055076598814
23419403 2 16174450900891491625
23493267 7 17822005402445126058
23552423 10 18337397023952366022
23559900 14 17190942654396101782
241688 4 18266182738094875650
2748010 2 18411700963174537799
2897 32 18194968667065150229
353137 74 18409733958674038292
5084963 1 18199182884912996786
5255222 1 17981047414356146464
528862 383 17902791100194260113
528886 8 18410581673185122120
54276843 12 18058180585895889157
589210 1 18049720720125103620
63268167 104 18410572885745324967
8030462 33 18201716228159222887
81228 2 18193544580585648353

> <PUBCHEM_SHAPE_MULTIPOLES>
308.69
3.92
2.66
1.17
0.23
0.29
-0.09
-0.78
0.19
-0.31
0.1
0.15
0.3
-0.19

> <PUBCHEM_SHAPE_SELFOVERLAP>
634.244

> <PUBCHEM_SHAPE_VOLUME>
177.2

> <PUBCHEM_COORDINATE_TYPE>
2
5
10

$$$$
