6713165
  -OEChem-12071808533D

 38 41  0     1  0  0  0  0  0999 V2000
    1.2125    0.1327    2.0731 O   0  0  0  0  0  0  0  0  0  0  0  0
    3.5694    0.3415   -1.9717 O   0  0  0  0  0  0  0  0  0  0  0  0
    3.4486    2.2471    0.1422 O   0  0  0  0  0  0  0  0  0  0  0  0
    5.1361   -0.0163    0.3027 O   0  0  0  0  0  0  0  0  0  0  0  0
   -0.6218   -3.1345    0.4372 O   0  0  0  0  0  0  0  0  0  0  0  0
   -3.7169    2.2733   -0.2543 O   0  0  0  0  0  0  0  0  0  0  0  0
   -4.6330    0.0652    0.0446 O   0  0  0  0  0  0  0  0  0  0  0  0
   -3.0489   -2.2812    0.2045 O   0  0  0  0  0  0  0  0  0  0  0  0
    1.1376   -1.8494   -0.2897 N   0  0  0  0  0  0  0  0  0  0  0  0
    0.9620    0.6167   -0.3320 C   0  0  2  0  0  0  0  0  0  0  0  0
    1.6140   -0.6397   -0.9457 C   0  0  1  0  0  0  0  0  0  0  0  0
    1.5723    1.0366    1.0294 C   0  0  2  0  0  0  0  0  0  0  0  0
    3.1501   -0.5685   -0.9518 C   0  0  2  0  0  0  0  0  0  0  0  0
    3.1015    1.1341    0.9635 C   0  0  1  0  0  0  0  0  0  0  0  0
    3.7217   -0.1575    0.4109 C   0  0  2  0  0  0  0  0  0  0  0  0
   -0.5378    0.4191   -0.2409 C   0  0  0  0  0  0  0  0  0  0  0  0
   -1.0846   -0.8757   -0.0636 C   0  0  0  0  0  0  0  0  0  0  0  0
   -0.1879   -2.0547    0.0471 C   0  0  0  0  0  0  0  0  0  0  0  0
   -1.3929    1.5310   -0.3095 C   0  0  0  0  0  0  0  0  0  0  0  0
   -2.4696   -1.0634    0.0428 C   0  0  0  0  0  0  0  0  0  0  0  0
   -2.7516    1.3148   -0.2066 C   0  0  0  0  0  0  0  0  0  0  0  0
   -3.2741    0.0547   -0.0361 C   0  0  0  0  0  0  0  0  0  0  0  0
   -4.9066    1.4740   -0.0961 C   0  0  0  0  0  0  0  0  0  0  0  0
    1.1398    1.4353   -1.0440 H   0  0  0  0  0  0  0  0  0  0  0  0
    1.2634   -0.7255   -1.9844 H   0  0  0  0  0  0  0  0  0  0  0  0
    1.1590    2.0162    1.3023 H   0  0  0  0  0  0  0  0  0  0  0  0
    3.5755   -1.5405   -1.2315 H   0  0  0  0  0  0  0  0  0  0  0  0
    3.5201    1.3332    1.9565 H   0  0  0  0  0  0  0  0  0  0  0  0
    3.5353   -0.9639    1.1311 H   0  0  0  0  0  0  0  0  0  0  0  0
    1.7614   -2.6493   -0.2386 H   0  0  0  0  0  0  0  0  0  0  0  0
   -0.9994    2.5341   -0.4385 H   0  0  0  0  0  0  0  0  0  0  0  0
    1.5873    0.4760    2.9021 H   0  0  0  0  0  0  0  0  0  0  0  0
    3.2298    0.0096   -2.8203 H   0  0  0  0  0  0  0  0  0  0  0  0
    3.2257    2.0391   -0.7797 H   0  0  0  0  0  0  0  0  0  0  0  0
    5.4921   -0.8618   -0.0197 H   0  0  0  0  0  0  0  0  0  0  0  0
   -5.4446    1.8177    0.7949 H   0  0  0  0  0  0  0  0  0  0  0  0
   -5.5477    1.6213   -0.9729 H   0  0  0  0  0  0  0  0  0  0  0  0
   -2.3887   -2.9853    0.1131 H   0  0  0  0  0  0  0  0  0  0  0  0
  1 12  1  0  0  0  0
  1 32  1  0  0  0  0
  2 13  1  0  0  0  0
  2 33  1  0  0  0  0
  3 14  1  0  0  0  0
  3 34  1  0  0  0  0
  4 15  1  0  0  0  0
  4 35  1  0  0  0  0
  5 18  2  0  0  0  0
  6 21  1  0  0  0  0
  6 23  1  0  0  0  0
  7 22  1  0  0  0  0
  7 23  1  0  0  0  0
  8 20  1  0  0  0  0
  8 38  1  0  0  0  0
  9 11  1  0  0  0  0
  9 18  1  0  0  0  0
  9 30  1  0  0  0  0
 10 11  1  0  0  0  0
 10 12  1  0  0  0  0
 10 16  1  0  0  0  0
 10 24  1  0  0  0  0
 11 13  1  0  0  0  0
 11 25  1  0  0  0  0
 12 14  1  0  0  0  0
 12 26  1  0  0  0  0
 13 15  1  0  0  0  0
 13 27  1  0  0  0  0
 14 15  1  0  0  0  0
 14 28  1  0  0  0  0
 15 29  1  0  0  0  0
 16 17  1  0  0  0  0
 16 19  2  0  0  0  0
 17 18  1  0  0  0  0
 17 20  2  0  0  0  0
 19 21  1  0  0  0  0
 19 31  1  0  0  0  0
 20 22  1  0  0  0  0
 21 22  2  0  0  0  0
 23 36  1  0  0  0  0
 23 37  1  0  0  0  0
M  END
> <PUBCHEM_COMPOUND_CID>
6713165

> <PUBCHEM_CONFORMER_RMSD>
0.6

> <PUBCHEM_CONFORMER_DIVERSEORDER>
1
2
4
3

> <PUBCHEM_MMFF94_PARTIAL_CHARGES>
30
1 -0.68
10 0.14
11 0.3
12 0.28
13 0.28
14 0.28
15 0.28
16 -0.14
17 0.09
18 0.54
19 -0.15
2 -0.68
20 0.08
21 0.08
22 0.08
23 0.56
3 -0.68
30 0.37
31 0.15
32 0.4
33 0.4
34 0.4
35 0.4
38 0.45
4 -0.68
5 -0.57
6 -0.36
7 -0.36
8 -0.53
9 -0.73

> <PUBCHEM_EFFECTIVE_ROTOR_COUNT>
1.6

> <PUBCHEM_PHARMACOPHORE_FEATURES>
17
1 1 acceptor
1 1 donor
1 2 acceptor
1 2 donor
1 3 acceptor
1 3 donor
1 4 acceptor
1 4 donor
1 5 acceptor
1 6 acceptor
1 7 acceptor
1 8 donor
1 9 donor
5 6 7 21 22 23 rings
6 10 11 12 13 14 15 rings
6 16 17 19 20 21 22 rings
6 9 10 11 16 17 18 rings

> <PUBCHEM_HEAVY_ATOM_COUNT>
23

> <PUBCHEM_ATOM_DEF_STEREO_COUNT>
6

> <PUBCHEM_ATOM_UDEF_STEREO_COUNT>
0

> <PUBCHEM_BOND_DEF_STEREO_COUNT>
0

> <PUBCHEM_BOND_UDEF_STEREO_COUNT>
0

> <PUBCHEM_ISOTOPIC_ATOM_COUNT>
0

> <PUBCHEM_COMPONENT_COUNT>
1

> <PUBCHEM_CACTVS_TAUTO_COUNT>
22

> <PUBCHEM_CONFORMER_ID>
00666F4D00000001

> <PUBCHEM_MMFF94_ENERGY>
70.8236

> <PUBCHEM_FEATURE_SELFOVERLAP>
86.536

> <PUBCHEM_SHAPE_FINGERPRINT>
10319926 262 18268131206750590810
10411042 1 17329147386802464322
10498660 4 18409163307902680333
10608611 8 18342736355411730288
10646746 165 18411416219869853724
10863032 1 18410009918585933610
10948715 1 18411696590823678539
10967382 1 18338235955888215375
11370993 70 18411979148179627071
12173636 292 18408601487340730037
12236239 1 17385443219725651356
12403259 415 18202002178660752184
12403814 3 17385443202899158613
12592029 89 18335139735112532715
12788726 201 17245288635642231834
13140716 1 18264495164599677289
13224815 77 18342173405626906437
13544592 145 18271535208244320406
14787075 74 18129654326881182513
15196674 1 18339922713751213960
15219456 202 18202282536850929060
16752209 62 18262229036406067611
16945 1 18058461923465320726
1813 80 16517078516170615258
18186145 218 18131362894440163914
200 152 16343982490128717549
20510252 161 18269557298589910169
20645477 70 17060343989680424380
21279426 13 18126005966864097014
23175994 123 17418381302570589176
23402539 116 18340759403503307404
23493267 7 17822023011805979403
23557571 272 18270123555256711866
23558518 356 18044938119290264195
23559900 14 18271530810614612110
25 1 18200871781727796142
2748010 2 18410866472920557887
335352 9 18411417272305718158
350125 39 17903359199961266373
495365 180 17131257056717655792
4990 188 17846498110491060557
5104073 3 18411697733374715888
5265222 85 18267594675410330990
53812653 166 18341891866041128187
633830 44 18201152174710813357
69090 78 17989200460738137871
7364860 26 18124593072568110719
77492 1 17312819407169120886
7808743 9 18264488575745792300
9709674 26 18343867744297392006

> <PUBCHEM_SHAPE_MULTIPOLES>
421.39
8.49
2.37
1.09
1.34
1.04
0.04
-3.41
-0.44
1.21
0.21
-1.1
-0.11
0.63

> <PUBCHEM_SHAPE_SELFOVERLAP>
942.022

> <PUBCHEM_SHAPE_VOLUME>
219.1

> <PUBCHEM_COORDINATE_TYPE>
2
5
10

$$$$
