123134432
  -OEChem-12071808423D

107111  0     1  0  0  0  0  0999 V2000
   -3.3362    0.1236    0.9331 O   0  0  0  0  0  0  0  0  0  0  0  0
    4.3098   -1.8612    0.1535 O   0  0  0  0  0  0  0  0  0  0  0  0
   -4.0628   -5.1974    0.1358 O   0  0  0  0  0  0  0  0  0  0  0  0
    5.9242   -0.1833    0.5161 O   0  0  0  0  0  0  0  0  0  0  0  0
   -4.7532    0.9026   -0.7592 O   0  0  0  0  0  0  0  0  0  0  0  0
   -5.5473    1.5343    1.9167 O   0  0  0  0  0  0  0  0  0  0  0  0
   -3.9565    4.5110    0.8062 O   0  0  0  0  0  0  0  0  0  0  0  0
   -6.2112    4.2607   -1.2700 O   0  0  0  0  0  0  0  0  0  0  0  0
   -6.8446    0.5515   -2.7587 O   0  0  0  0  0  0  0  0  0  0  0  0
    0.3959   -0.0672    0.3288 C   0  0  1  0  0  0  0  0  0  0  0  0
    1.5826    0.5564    1.2079 C   0  0  1  0  0  0  0  0  0  0  0  0
    0.5116   -1.6461    0.4045 C   0  0  1  0  0  0  0  0  0  0  0  0
   -0.7070   -2.4677   -0.2160 C   0  0  2  0  0  0  0  0  0  0  0  0
    2.9438    0.0653    0.6462 C   0  0  1  0  0  0  0  0  0  0  0  0
   -2.0436   -1.9443    0.4682 C   0  0  1  0  0  0  0  0  0  0  0  0
   -0.9863    0.3523    0.8761 C   0  0  0  0  0  0  0  0  0  0  0  0
    1.9243   -2.1396   -0.0153 C   0  0  0  0  0  0  0  0  0  0  0  0
    3.9953    0.9376    1.3578 C   0  0  2  0  0  0  0  0  0  0  0  0
    3.0780   -1.4507    0.7393 C   0  0  1  0  0  0  0  0  0  0  0  0
   -2.1853   -0.4044    0.2776 C   0  0  2  0  0  0  0  0  0  0  0  0
    1.8107    2.0824    1.1227 C   0  0  0  0  0  0  0  0  0  0  0  0
   -3.3357   -2.8287    0.1881 C   0  0  0  0  0  0  0  0  0  0  0  0
    3.2760    2.2931    1.5507 C   0  0  0  0  0  0  0  0  0  0  0  0
   -0.5281   -3.9694    0.1609 C   0  0  0  0  0  0  0  0  0  0  0  0
    0.4782    0.4534   -1.1348 C   0  0  0  0  0  0  0  0  0  0  0  0
    1.4233    0.2242    2.7300 C   0  0  0  0  0  0  0  0  0  0  0  0
   -0.7271   -2.3784   -1.7617 C   0  0  0  0  0  0  0  0  0  0  0  0
   -3.0062   -4.3180    0.5245 C   0  0  2  0  0  0  0  0  0  0  0  0
   -1.7405   -4.8410   -0.1363 C   0  0  0  0  0  0  0  0  0  0  0  0
    5.3003    1.1013    0.5865 C   0  0  2  0  0  0  0  0  0  0  0  0
   -3.8742   -2.6869   -1.2497 C   0  0  0  0  0  0  0  0  0  0  0  0
   -4.5109   -2.4211    1.1220 C   0  0  0  0  0  0  0  0  0  0  0  0
    5.0794    1.6411   -0.8437 C   0  0  0  0  0  0  0  0  0  0  0  0
    6.2415    2.0375    1.3539 C   0  0  0  0  0  0  0  0  0  0  0  0
   -3.8311    1.2808    0.2624 C   0  0  1  0  0  0  0  0  0  0  0  0
    6.3712    1.8926   -1.6317 C   0  0  0  0  0  0  0  0  0  0  0  0
   -4.4504    2.2161    1.3025 C   0  0  1  0  0  0  0  0  0  0  0  0
   -4.9583    3.5039    0.6484 C   0  0  2  0  0  0  0  0  0  0  0  0
   -5.7060    1.8979   -1.1471 C   0  0  1  0  0  0  0  0  0  0  0  0
    7.1301    0.6124   -1.8482 C   0  0  0  0  0  0  0  0  0  0  0  0
   -5.2246    3.3207   -0.8531 C   0  0  1  0  0  0  0  0  0  0  0  0
   -6.0036    1.6828   -2.6283 C   0  0  0  0  0  0  0  0  0  0  0  0
    8.4025    0.3429   -1.4996 C   0  0  0  0  0  0  0  0  0  0  0  0
    9.1059   -0.9620   -1.7451 C   0  0  0  0  0  0  0  0  0  0  0  0
    9.2465    1.3887   -0.8216 C   0  0  0  0  0  0  0  0  0  0  0  0
    0.4472   -1.8996    1.4702 H   0  0  0  0  0  0  0  0  0  0  0  0
    2.9732    0.3117   -0.4148 H   0  0  0  0  0  0  0  0  0  0  0  0
   -1.8860   -2.0741    1.5524 H   0  0  0  0  0  0  0  0  0  0  0  0
   -1.1105    1.4361    0.7609 H   0  0  0  0  0  0  0  0  0  0  0  0
   -1.0378    0.1866    1.9580 H   0  0  0  0  0  0  0  0  0  0  0  0
    2.0253   -3.2159    0.1604 H   0  0  0  0  0  0  0  0  0  0  0  0
    2.0821   -2.0110   -1.0915 H   0  0  0  0  0  0  0  0  0  0  0  0
    4.2176    0.4953    2.3381 H   0  0  0  0  0  0  0  0  0  0  0  0
    3.0924   -1.7762    1.7848 H   0  0  0  0  0  0  0  0  0  0  0  0
   -2.2730   -0.2003   -0.7931 H   0  0  0  0  0  0  0  0  0  0  0  0
    1.1196    2.6550    1.7501 H   0  0  0  0  0  0  0  0  0  0  0  0
    1.7140    2.4652    0.1041 H   0  0  0  0  0  0  0  0  0  0  0  0
    3.7015    3.1413    1.0095 H   0  0  0  0  0  0  0  0  0  0  0  0
    3.3137    2.5675    2.6124 H   0  0  0  0  0  0  0  0  0  0  0  0
   -0.3000   -4.0552    1.2316 H   0  0  0  0  0  0  0  0  0  0  0  0
    0.3259   -4.3999   -0.3750 H   0  0  0  0  0  0  0  0  0  0  0  0
    1.3597    0.0972   -1.6719 H   0  0  0  0  0  0  0  0  0  0  0  0
    0.4754    1.5454   -1.1797 H   0  0  0  0  0  0  0  0  0  0  0  0
   -0.3820    0.1692   -1.7376 H   0  0  0  0  0  0  0  0  0  0  0  0
    1.3012   -0.8405    2.9341 H   0  0  0  0  0  0  0  0  0  0  0  0
    0.5638    0.7483    3.1604 H   0  0  0  0  0  0  0  0  0  0  0  0
    2.2816    0.5425    3.3290 H   0  0  0  0  0  0  0  0  0  0  0  0
   -1.3739   -1.5851   -2.1381 H   0  0  0  0  0  0  0  0  0  0  0  0
   -1.0815   -3.2974   -2.2348 H   0  0  0  0  0  0  0  0  0  0  0  0
    0.2689   -2.2188   -2.1811 H   0  0  0  0  0  0  0  0  0  0  0  0
   -2.8945   -4.4151    1.6128 H   0  0  0  0  0  0  0  0  0  0  0  0
   -1.8941   -4.9644   -1.2137 H   0  0  0  0  0  0  0  0  0  0  0  0
   -1.5400   -5.8582    0.2260 H   0  0  0  0  0  0  0  0  0  0  0  0
   -3.2402   -3.1761   -1.9897 H   0  0  0  0  0  0  0  0  0  0  0  0
   -3.9837   -1.6377   -1.5386 H   0  0  0  0  0  0  0  0  0  0  0  0
   -4.1698   -2.2819    2.1536 H   0  0  0  0  0  0  0  0  0  0  0  0
   -4.8652   -3.1468   -1.3467 H   0  0  0  0  0  0  0  0  0  0  0  0
   -5.0097   -1.5064    0.7914 H   0  0  0  0  0  0  0  0  0  0  0  0
   -5.2911   -3.1913    1.1407 H   0  0  0  0  0  0  0  0  0  0  0  0
    4.3645   -2.8288    0.2320 H   0  0  0  0  0  0  0  0  0  0  0  0
    4.5100    2.5757   -0.8420 H   0  0  0  0  0  0  0  0  0  0  0  0
    4.5094    0.9228   -1.4427 H   0  0  0  0  0  0  0  0  0  0  0  0
    7.2750    1.9465    1.0146 H   0  0  0  0  0  0  0  0  0  0  0  0
    6.2693    1.7685    2.4171 H   0  0  0  0  0  0  0  0  0  0  0  0
    5.9474    3.0889    1.2820 H   0  0  0  0  0  0  0  0  0  0  0  0
   -3.0106    1.8226   -0.2254 H   0  0  0  0  0  0  0  0  0  0  0  0
   -3.8348   -6.0902    0.4465 H   0  0  0  0  0  0  0  0  0  0  0  0
    6.1035   -0.4834    1.4235 H   0  0  0  0  0  0  0  0  0  0  0  0
    6.9417    2.6922   -1.1599 H   0  0  0  0  0  0  0  0  0  0  0  0
    6.0965    2.2781   -2.6223 H   0  0  0  0  0  0  0  0  0  0  0  0
   -3.7212    2.4195    2.0955 H   0  0  0  0  0  0  0  0  0  0  0  0
   -5.8588    3.8734    1.1534 H   0  0  0  0  0  0  0  0  0  0  0  0
   -6.6274    1.7000   -0.5833 H   0  0  0  0  0  0  0  0  0  0  0  0
    6.5725   -0.1732   -2.3571 H   0  0  0  0  0  0  0  0  0  0  0  0
   -4.3137    3.5380   -1.4243 H   0  0  0  0  0  0  0  0  0  0  0  0
   -5.9028    2.1179    2.6086 H   0  0  0  0  0  0  0  0  0  0  0  0
   -5.0849    1.4973   -3.1946 H   0  0  0  0  0  0  0  0  0  0  0  0
   -6.5326    2.5333   -3.0676 H   0  0  0  0  0  0  0  0  0  0  0  0
   -3.8425    4.6640    1.7598 H   0  0  0  0  0  0  0  0  0  0  0  0
   -7.0404    4.0514   -0.8069 H   0  0  0  0  0  0  0  0  0  0  0  0
    9.3940    1.1243    0.2306 H   0  0  0  0  0  0  0  0  0  0  0  0
    8.8663    2.4085   -0.8713 H   0  0  0  0  0  0  0  0  0  0  0  0
   10.2352    1.4223   -1.2949 H   0  0  0  0  0  0  0  0  0  0  0  0
    9.4476   -1.3937   -0.7989 H   0  0  0  0  0  0  0  0  0  0  0  0
    9.9725   -0.8139   -2.3972 H   0  0  0  0  0  0  0  0  0  0  0  0
    8.4455   -1.6911   -2.2259 H   0  0  0  0  0  0  0  0  0  0  0  0
   -7.0146    0.4274   -3.7080 H   0  0  0  0  0  0  0  0  0  0  0  0
  1 20  1  0  0  0  0
  1 35  1  0  0  0  0
  2 19  1  0  0  0  0
  2 80  1  0  0  0  0
  3 28  1  0  0  0  0
  3 87  1  0  0  0  0
  4 30  1  0  0  0  0
  4 88  1  0  0  0  0
  5 35  1  0  0  0  0
  5 39  1  0  0  0  0
  6 37  1  0  0  0  0
  6 96  1  0  0  0  0
  7 38  1  0  0  0  0
  7 99  1  0  0  0  0
  8 41  1  0  0  0  0
  8100  1  0  0  0  0
  9 42  1  0  0  0  0
  9107  1  0  0  0  0
 10 11  1  0  0  0  0
 10 12  1  0  0  0  0
 10 16  1  0  0  0  0
 10 25  1  0  0  0  0
 11 14  1  0  0  0  0
 11 21  1  0  0  0  0
 11 26  1  0  0  0  0
 12 13  1  0  0  0  0
 12 17  1  0  0  0  0
 12 46  1  0  0  0  0
 13 15  1  0  0  0  0
 13 24  1  0  0  0  0
 13 27  1  0  0  0  0
 14 18  1  0  0  0  0
 14 19  1  0  0  0  0
 14 47  1  0  0  0  0
 15 20  1  0  0  0  0
 15 22  1  0  0  0  0
 15 48  1  0  0  0  0
 16 20  1  0  0  0  0
 16 49  1  0  0  0  0
 16 50  1  0  0  0  0
 17 19  1  0  0  0  0
 17 51  1  0  0  0  0
 17 52  1  0  0  0  0
 18 23  1  0  0  0  0
 18 30  1  0  0  0  0
 18 53  1  0  0  0  0
 19 54  1  0  0  0  0
 20 55  1  0  0  0  0
 21 23  1  0  0  0  0
 21 56  1  0  0  0  0
 21 57  1  0  0  0  0
 22 28  1  0  0  0  0
 22 31  1  0  0  0  0
 22 32  1  0  0  0  0
 23 58  1  0  0  0  0
 23 59  1  0  0  0  0
 24 29  1  0  0  0  0
 24 60  1  0  0  0  0
 24 61  1  0  0  0  0
 25 62  1  0  0  0  0
 25 63  1  0  0  0  0
 25 64  1  0  0  0  0
 26 65  1  0  0  0  0
 26 66  1  0  0  0  0
 26 67  1  0  0  0  0
 27 68  1  0  0  0  0
 27 69  1  0  0  0  0
 27 70  1  0  0  0  0
 28 29  1  0  0  0  0
 28 71  1  0  0  0  0
 29 72  1  0  0  0  0
 29 73  1  0  0  0  0
 30 33  1  0  0  0  0
 30 34  1  0  0  0  0
 31 74  1  0  0  0  0
 31 75  1  0  0  0  0
 31 77  1  0  0  0  0
 32 76  1  0  0  0  0
 32 78  1  0  0  0  0
 32 79  1  0  0  0  0
 33 36  1  0  0  0  0
 33 81  1  0  0  0  0
 33 82  1  0  0  0  0
 34 83  1  0  0  0  0
 34 84  1  0  0  0  0
 34 85  1  0  0  0  0
 35 37  1  0  0  0  0
 35 86  1  0  0  0  0
 36 40  1  0  0  0  0
 36 89  1  0  0  0  0
 36 90  1  0  0  0  0
 37 38  1  0  0  0  0
 37 91  1  0  0  0  0
 38 41  1  0  0  0  0
 38 92  1  0  0  0  0
 39 41  1  0  0  0  0
 39 42  1  0  0  0  0
 39 93  1  0  0  0  0
 40 43  2  0  0  0  0
 40 94  1  0  0  0  0
 41 95  1  0  0  0  0
 42 97  1  0  0  0  0
 42 98  1  0  0  0  0
 43 44  1  0  0  0  0
 43 45  1  0  0  0  0
 44104  1  0  0  0  0
 44105  1  0  0  0  0
 44106  1  0  0  0  0
 45101  1  0  0  0  0
 45102  1  0  0  0  0
 45103  1  0  0  0  0
M  END
> <PUBCHEM_COMPOUND_CID>
123134432

> <PUBCHEM_CONFORMER_RMSD>
1.2

> <PUBCHEM_CONFORMER_DIVERSEORDER>
3
28
22
35
8
37
20
32
13
31
14
6
24
17
25
36
19
27
21
9
18
23
34
12
30
4
15
11
10
33
5
2
29
7
26
16
1

> <PUBCHEM_MMFF94_PARTIAL_CHARGES>
32
1 -0.56
100 0.4
107 0.4
19 0.28
2 -0.68
20 0.28
28 0.28
3 -0.68
30 0.28
35 0.56
36 0.14
37 0.28
38 0.28
39 0.28
4 -0.68
40 -0.29
41 0.28
42 0.28
43 -0.28
44 0.14
45 0.14
5 -0.56
6 -0.68
7 -0.68
8 -0.68
80 0.4
87 0.4
88 0.4
9 -0.68
94 0.15
96 0.4
99 0.4

> <PUBCHEM_EFFECTIVE_ROTOR_COUNT>
10.4

> <PUBCHEM_PHARMACOPHORE_FEATURES>
23
1 1 acceptor
1 2 acceptor
1 2 donor
1 3 acceptor
1 3 donor
1 4 acceptor
1 4 donor
1 5 acceptor
1 6 acceptor
1 6 donor
1 7 acceptor
1 7 donor
1 8 acceptor
1 8 donor
1 9 acceptor
1 9 donor
3 22 31 32 hydrophobe
3 43 44 45 hydrophobe
5 11 14 18 21 23 rings
6 10 11 12 14 17 19 rings
6 10 12 13 15 16 20 rings
6 13 15 22 24 28 29 rings
6 5 35 37 38 39 41 rings

> <PUBCHEM_HEAVY_ATOM_COUNT>
45

> <PUBCHEM_ATOM_DEF_STEREO_COUNT>
15

> <PUBCHEM_ATOM_UDEF_STEREO_COUNT>
1

> <PUBCHEM_BOND_DEF_STEREO_COUNT>
0

> <PUBCHEM_BOND_UDEF_STEREO_COUNT>
0

> <PUBCHEM_ISOTOPIC_ATOM_COUNT>
0

> <PUBCHEM_COMPONENT_COUNT>
1

> <PUBCHEM_CACTVS_TAUTO_COUNT>
1

> <PUBCHEM_CONFORMER_ID>
0756E1E000000003

> <PUBCHEM_MMFF94_ENERGY>
208.8343

> <PUBCHEM_FEATURE_SELFOVERLAP>
116.944

> <PUBCHEM_SHAPE_FINGERPRINT>
10010297 198 17168690939117748618
10290309 65 18341337725325062035
10675989 125 17835799699582126809
11007060 377 18343294864833120153
11411753 3 18057597862541031992
11578080 2 18113889442746333422
11991303 11 18408604768574392007
12013929 112 18263653866495538340
12788726 201 18118103995970881515
13540713 4 17916015961992728968
13690498 29 18127136487797307062
13782708 43 17701826707530127102
13811026 1 17917714635160558072
14202776 33 18115317811519082901
14294032 229 18187081759165586780
14512766 119 18262513805453928876
14664723 55 18260550026136538028
14790565 3 18268431218015282097
15064981 194 18335706091782361765
15183329 4 18201999894023513304
15198563 99 18195516216236929391
15230672 131 18410579445041997106
15439362 3 18195816162865146349
15890870 6 18339646625387101825
16990366 60 10590886888424773253
16992727 255 18410304605757837380
19304152 47 17894923931615619011
23522609 53 17822303400973830100
23569914 152 17414160110207232726
23569943 247 14907359446884679924
23576562 1 18189056563537627532
354706 132 18187941616087416446
4058900 60 18266746779091283635
4107672 100 18336273426712236814
4144715 1 18409454695617035306
4258327 124 17822006532507055917
508180 173 16486968471262493889
563151 40 18261401057064046018
57527295 17 17274825697299289223
6009941 240 18272377481986667644
6086070 43 18131630114900538952

> <PUBCHEM_SHAPE_MULTIPOLES>
873.26
21.17
5.73
2.04
35.87
3.41
0.55
-14.94
12.32
-12.41
0.02
-0.26
-1.06
1.62

> <PUBCHEM_SHAPE_SELFOVERLAP>
1822.271

> <PUBCHEM_SHAPE_VOLUME>
489.1

> <PUBCHEM_COORDINATE_TYPE>
2
5
10

$$$$
