22169126
  -OEChem-12071808533D

 46 45  0     0  0  0  0  0  0999 V2000
    8.8668    0.6255   -0.0051 O   0  5  0  0  0  0  0  0  0  0  0  0
    7.8016   -1.3937   -0.0332 O   0  0  0  0  0  0  0  0  0  0  0  0
   -1.0904    0.4999    0.0233 C   0  0  0  0  0  0  0  0  0  0  0  0
   -2.3708   -0.3410    0.0756 C   0  0  0  0  0  0  0  0  0  0  0  0
    0.1889   -0.3397    0.0637 C   0  0  0  0  0  0  0  0  0  0  0  0
   -3.6874    0.4431    0.0641 C   0  0  0  0  0  0  0  0  0  0  0  0
    1.4687    0.5008    0.0075 C   0  0  0  0  0  0  0  0  0  0  0  0
   -4.9641   -0.4040    0.0570 C   0  0  0  0  0  0  0  0  0  0  0  0
    2.7500   -0.3358    0.0186 C   0  0  0  0  0  0  0  0  0  0  0  0
   -6.2437    0.4339   -0.0033 C   0  0  0  0  0  0  0  0  0  0  0  0
    3.9929    0.5546   -0.0498 C   0  0  0  0  0  0  0  0  0  0  0  0
   -7.5211   -0.4116   -0.0046 C   0  0  0  0  0  0  0  0  0  0  0  0
    5.2763   -0.2763    0.0000 C   0  0  0  0  0  0  0  0  0  0  0  0
   -8.8009    0.4245   -0.0411 C   0  0  0  0  0  0  0  0  0  0  0  0
    6.5160    0.6116   -0.0347 C   0  0  0  0  0  0  0  0  0  0  0  0
  -10.0375   -0.4583   -0.1144 C   0  0  0  0  0  0  0  0  0  0  0  0
    7.8547   -0.1336   -0.0235 C   0  0  0  0  0  0  0  0  0  0  0  0
   -1.0980    1.1055   -0.8911 H   0  0  0  0  0  0  0  0  0  0  0  0
   -1.0888    1.2005    0.8672 H   0  0  0  0  0  0  0  0  0  0  0  0
   -2.3471   -0.9653    0.9778 H   0  0  0  0  0  0  0  0  0  0  0  0
   -2.3693   -1.0318   -0.7772 H   0  0  0  0  0  0  0  0  0  0  0  0
    0.1959   -0.9435    0.9794 H   0  0  0  0  0  0  0  0  0  0  0  0
    0.1837   -1.0421   -0.7788 H   0  0  0  0  0  0  0  0  0  0  0  0
   -3.7072    1.1074    0.9372 H   0  0  0  0  0  0  0  0  0  0  0  0
   -3.6942    1.0940   -0.8193 H   0  0  0  0  0  0  0  0  0  0  0  0
    1.4794    1.1916    0.8597 H   0  0  0  0  0  0  0  0  0  0  0  0
    1.4499    1.1180   -0.8994 H   0  0  0  0  0  0  0  0  0  0  0  0
   -4.9382   -1.0838   -0.8035 H   0  0  0  0  0  0  0  0  0  0  0  0
   -4.9819   -1.0316    0.9563 H   0  0  0  0  0  0  0  0  0  0  0  0
    2.7446   -1.0277   -0.8322 H   0  0  0  0  0  0  0  0  0  0  0  0
    2.7796   -0.9440    0.9307 H   0  0  0  0  0  0  0  0  0  0  0  0
   -6.2245    1.0582   -0.9051 H   0  0  0  0  0  0  0  0  0  0  0  0
   -6.2664    1.1172    0.8547 H   0  0  0  0  0  0  0  0  0  0  0  0
    3.9720    1.1461   -0.9731 H   0  0  0  0  0  0  0  0  0  0  0  0
    3.9828    1.2623    0.7882 H   0  0  0  0  0  0  0  0  0  0  0  0
   -7.5321   -1.0493    0.8882 H   0  0  0  0  0  0  0  0  0  0  0  0
   -7.5010   -1.0827   -0.8723 H   0  0  0  0  0  0  0  0  0  0  0  0
    5.2867   -0.8858    0.9121 H   0  0  0  0  0  0  0  0  0  0  0  0
    5.2932   -0.9718   -0.8482 H   0  0  0  0  0  0  0  0  0  0  0  0
   -8.7838    1.0915   -0.9108 H   0  0  0  0  0  0  0  0  0  0  0  0
   -8.8568    1.0566    0.8525 H   0  0  0  0  0  0  0  0  0  0  0  0
    6.4947    1.2342   -0.9379 H   0  0  0  0  0  0  0  0  0  0  0  0
    6.5039    1.2889    0.8283 H   0  0  0  0  0  0  0  0  0  0  0  0
  -10.9418    0.1579   -0.1371 H   0  0  0  0  0  0  0  0  0  0  0  0
  -10.0989   -1.1201    0.7554 H   0  0  0  0  0  0  0  0  0  0  0  0
  -10.0255   -1.0770   -1.0174 H   0  0  0  0  0  0  0  0  0  0  0  0
  1 17  1  0  0  0  0
  2 17  2  0  0  0  0
  3  4  1  0  0  0  0
  3  5  1  0  0  0  0
  3 18  1  0  0  0  0
  3 19  1  0  0  0  0
  4  6  1  0  0  0  0
  4 20  1  0  0  0  0
  4 21  1  0  0  0  0
  5  7  1  0  0  0  0
  5 22  1  0  0  0  0
  5 23  1  0  0  0  0
  6  8  1  0  0  0  0
  6 24  1  0  0  0  0
  6 25  1  0  0  0  0
  7  9  1  0  0  0  0
  7 26  1  0  0  0  0
  7 27  1  0  0  0  0
  8 10  1  0  0  0  0
  8 28  1  0  0  0  0
  8 29  1  0  0  0  0
  9 11  1  0  0  0  0
  9 30  1  0  0  0  0
  9 31  1  0  0  0  0
 10 12  1  0  0  0  0
 10 32  1  0  0  0  0
 10 33  1  0  0  0  0
 11 13  1  0  0  0  0
 11 34  1  0  0  0  0
 11 35  1  0  0  0  0
 12 14  1  0  0  0  0
 12 36  1  0  0  0  0
 12 37  1  0  0  0  0
 13 15  1  0  0  0  0
 13 38  1  0  0  0  0
 13 39  1  0  0  0  0
 14 16  1  0  0  0  0
 14 40  1  0  0  0  0
 14 41  1  0  0  0  0
 15 17  1  0  0  0  0
 15 42  1  0  0  0  0
 15 43  1  0  0  0  0
 16 44  1  0  0  0  0
 16 45  1  0  0  0  0
 16 46  1  0  0  0  0
M  CHG  1   1  -1
M  END
> <PUBCHEM_COMPOUND_CID>
22169126

> <PUBCHEM_CONFORMER_RMSD>
1.2

> <PUBCHEM_CONFORMER_DIVERSEORDER>
1
81
25
48
159
9
44
133
150
40
147
124
58
41
13
170
86
69
16
168
61
52
158
20
156
118
167
83
7
94
149
12
162
70
73
155
74
154
65
29
123
153
22
101
50
100
56
77
129
132
51
35
143
151
2
116
53
109
87
130
14
128
117
37
21
57
3
46
5
85
66
157
95
26
55
110
122
76
173
32
107
144
38
60
84
106
169
163
137
49
164
11
43
102
10
91
160
172
34
80
99
19
174
68
166
175
15
165
31
8
82
75
125
72
131
33
27
146
59
136
161
120
134
71
113
79
138
47
96
135
18
64
42
115
139
45
89
126
140
39
148
4
78
142
67
63
36
111
103
145
28
171
92
90
105
62
30
54
141
98
88
93
24
119
6
17
112
114
104
23
108
152
97
127
121

> <PUBCHEM_MMFF94_PARTIAL_CHARGES>
4
1 -0.9
15 -0.11
17 0.91
2 -0.9

> <PUBCHEM_EFFECTIVE_ROTOR_COUNT>
13

> <PUBCHEM_PHARMACOPHORE_FEATURES>
4
1 1 acceptor
1 16 hydrophobe
1 2 acceptor
3 1 2 17 anion

> <PUBCHEM_HEAVY_ATOM_COUNT>
17

> <PUBCHEM_ATOM_DEF_STEREO_COUNT>
0

> <PUBCHEM_ATOM_UDEF_STEREO_COUNT>
0

> <PUBCHEM_BOND_DEF_STEREO_COUNT>
0

> <PUBCHEM_BOND_UDEF_STEREO_COUNT>
0

> <PUBCHEM_ISOTOPIC_ATOM_COUNT>
0

> <PUBCHEM_COMPONENT_COUNT>
1

> <PUBCHEM_CACTVS_TAUTO_COUNT>
1

> <PUBCHEM_CONFORMER_ID>
0152462600000001

> <PUBCHEM_MMFF94_ENERGY>
1.1567

> <PUBCHEM_FEATURE_SELFOVERLAP>
20.352

> <PUBCHEM_SHAPE_FINGERPRINT>
11315181 36 18201723968660741041
11638347 137 14764635192515343620
14123256 10 18411700984944454941
14202775 3 18412268337535897239
14251764 18 17846782892676868146
14251764 46 18410856563934756870
155225 1 9295277349883385842
20621476 8 18187081754653776149
232437 2 18342458149611974679
23521765 1 18342176669907526633
23581129 1 18409448089539627777
246663 6 18410576184179981441
28498 318 18408322172737772190
33684 2 18260829297905353073
4325135 7 18408603660678434677
5283156 175 18413390925789715636
67123 10 18410855473013063685
8209 1 18410575088958059201

> <PUBCHEM_SHAPE_MULTIPOLES>
338.11
35.59
0.87
0.61
13.45
0.08
0
2.37
-1.1
-0.6
0
0.1
0
-0.01

> <PUBCHEM_SHAPE_SELFOVERLAP>
613.133

> <PUBCHEM_SHAPE_VOLUME>
216

> <PUBCHEM_COORDINATE_TYPE>
2
5
10

$$$$
