20831623
  -OEChem-12071808433D

 39 40  0     1  0  0  0  0  0999 V2000
    2.4608   -0.0467    0.0070 C   0  0  0  0  0  0  0  0  0  0  0  0
    0.9859   -0.4671   -0.2649 C   0  0  2  0  0  0  0  0  0  0  0  0
    0.5913    0.9216    0.3697 C   0  0  1  0  0  0  0  0  0  0  0  0
    1.9990    1.4224   -0.0447 C   0  0  0  0  0  0  0  0  0  0  0  0
    0.5961   -1.7610    0.4686 C   0  0  0  0  0  0  0  0  0  0  0  0
    3.4087   -0.4200   -1.1115 C   0  0  0  0  0  0  0  0  0  0  0  0
    3.0674   -0.4060    1.3503 C   0  0  0  0  0  0  0  0  0  0  0  0
   -0.6083    1.6492   -0.1726 C   0  0  0  0  0  0  0  0  0  0  0  0
   -0.7315   -2.3706   -0.0252 C   0  0  0  0  0  0  0  0  0  0  0  0
   -1.7694    1.9014    0.7793 C   0  0  0  0  0  0  0  0  0  0  0  0
   -1.8751   -1.3866   -0.1278 C   0  0  0  0  0  0  0  0  0  0  0  0
   -2.8197    0.7702    0.8044 C   0  0  0  0  0  0  0  0  0  0  0  0
   -0.6584    2.0569   -1.4499 C   0  0  0  0  0  0  0  0  0  0  0  0
   -2.1318   -0.5588    0.9035 C   0  0  0  0  0  0  0  0  0  0  0  0
   -2.5149   -1.3050   -1.4862 C   0  0  0  0  0  0  0  0  0  0  0  0
    0.7693   -0.5395   -1.3410 H   0  0  0  0  0  0  0  0  0  0  0  0
    0.5166    0.8616    1.4660 H   0  0  0  0  0  0  0  0  0  0  0  0
    2.0777    1.8804   -1.0371 H   0  0  0  0  0  0  0  0  0  0  0  0
    2.4736    2.1043    0.6692 H   0  0  0  0  0  0  0  0  0  0  0  0
    0.5488   -1.5970    1.5515 H   0  0  0  0  0  0  0  0  0  0  0  0
    1.3715   -2.5202    0.3039 H   0  0  0  0  0  0  0  0  0  0  0  0
    3.5837   -1.5014   -1.1355 H   0  0  0  0  0  0  0  0  0  0  0  0
    3.0168   -0.1318   -2.0935 H   0  0  0  0  0  0  0  0  0  0  0  0
    4.3794    0.0740   -0.9920 H   0  0  0  0  0  0  0  0  0  0  0  0
    3.2840   -1.4779    1.4174 H   0  0  0  0  0  0  0  0  0  0  0  0
    4.0142    0.1247    1.5053 H   0  0  0  0  0  0  0  0  0  0  0  0
    2.4184   -0.1491    2.1939 H   0  0  0  0  0  0  0  0  0  0  0  0
   -1.0219   -3.2082    0.6203 H   0  0  0  0  0  0  0  0  0  0  0  0
   -0.5426   -2.8036   -1.0165 H   0  0  0  0  0  0  0  0  0  0  0  0
   -1.3778    2.0600    1.7926 H   0  0  0  0  0  0  0  0  0  0  0  0
   -2.2740    2.8400    0.5151 H   0  0  0  0  0  0  0  0  0  0  0  0
   -3.4531    0.8494   -0.0833 H   0  0  0  0  0  0  0  0  0  0  0  0
   -3.4838    0.9017    1.6663 H   0  0  0  0  0  0  0  0  0  0  0  0
    0.1442    1.8718   -2.1540 H   0  0  0  0  0  0  0  0  0  0  0  0
   -1.5308    2.5776   -1.8320 H   0  0  0  0  0  0  0  0  0  0  0  0
   -1.6195   -0.7271    1.8496 H   0  0  0  0  0  0  0  0  0  0  0  0
   -1.7972   -0.9359   -2.2257 H   0  0  0  0  0  0  0  0  0  0  0  0
   -3.3963   -0.6610   -1.5140 H   0  0  0  0  0  0  0  0  0  0  0  0
   -2.8486   -2.3008   -1.7985 H   0  0  0  0  0  0  0  0  0  0  0  0
  1  2  1  0  0  0  0
  1  4  1  0  0  0  0
  1  6  1  0  0  0  0
  1  7  1  0  0  0  0
  2  3  1  0  0  0  0
  2  5  1  0  0  0  0
  2 16  1  0  0  0  0
  3  4  1  0  0  0  0
  3  8  1  0  0  0  0
  3 17  1  0  0  0  0
  4 18  1  0  0  0  0
  4 19  1  0  0  0  0
  5  9  1  0  0  0  0
  5 20  1  0  0  0  0
  5 21  1  0  0  0  0
  6 22  1  0  0  0  0
  6 23  1  0  0  0  0
  6 24  1  0  0  0  0
  7 25  1  0  0  0  0
  7 26  1  0  0  0  0
  7 27  1  0  0  0  0
  8 10  1  0  0  0  0
  8 13  2  0  0  0  0
  9 11  1  0  0  0  0
  9 28  1  0  0  0  0
  9 29  1  0  0  0  0
 10 12  1  0  0  0  0
 10 30  1  0  0  0  0
 10 31  1  0  0  0  0
 11 14  2  0  0  0  0
 11 15  1  0  0  0  0
 12 14  1  0  0  0  0
 12 32  1  0  0  0  0
 12 33  1  0  0  0  0
 13 34  1  0  0  0  0
 13 35  1  0  0  0  0
 14 36  1  0  0  0  0
 15 37  1  0  0  0  0
 15 38  1  0  0  0  0
 15 39  1  0  0  0  0
M  END
> <PUBCHEM_COMPOUND_CID>
20831623

> <PUBCHEM_CONFORMER_RMSD>
0.6

> <PUBCHEM_CONFORMER_DIVERSEORDER>
1
2
3
4

> <PUBCHEM_MMFF94_PARTIAL_CHARGES>
12
10 0.14
11 -0.28
12 0.14
13 -0.3
14 -0.29
15 0.14
3 0.12
34 0.15
35 0.15
36 0.15
8 -0.25
9 0.14

> <PUBCHEM_EFFECTIVE_ROTOR_COUNT>
1.2

> <PUBCHEM_PHARMACOPHORE_FEATURES>
2
3 1 6 7 hydrophobe
4 1 2 3 4 rings

> <PUBCHEM_HEAVY_ATOM_COUNT>
15

> <PUBCHEM_ATOM_DEF_STEREO_COUNT>
2

> <PUBCHEM_ATOM_UDEF_STEREO_COUNT>
0

> <PUBCHEM_BOND_DEF_STEREO_COUNT>
1

> <PUBCHEM_BOND_UDEF_STEREO_COUNT>
0

> <PUBCHEM_ISOTOPIC_ATOM_COUNT>
0

> <PUBCHEM_COMPONENT_COUNT>
1

> <PUBCHEM_CACTVS_TAUTO_COUNT>
1

> <PUBCHEM_CONFORMER_ID>
013DDD8700000001

> <PUBCHEM_MMFF94_ENERGY>
42.0053

> <PUBCHEM_FEATURE_SELFOVERLAP>
10.148

> <PUBCHEM_SHAPE_FINGERPRINT>
10353120 184 18262247706333315830
11086676 242 18334300872338940392
11132069 177 18342454837738353040
11206711 2 18407757023718832654
11680986 33 17542496137666227794
12423570 1 11061570734963141840
12524768 44 18195811996973884950
13140716 1 18338237166710264681
13172582 1 18408324401572558866
1420 336 18267025135784924819
14251711 518 18335985375518383155
14251745 187 18200890503975913246
14614273 12 18262509282694733309
14617773 55 18129943510859868449
14817 1 8311354853097181517
15001771 113 17978237380505302837
15775835 57 18337402525720907400
15852999 172 17393860887300634036
15881359 60 18115576033775006845
16945 1 18341898488901693802
19930374 2 18116983391093627496
20525323 117 18343011203338123946
20871998 184 18262526875044691129
21501502 16 18270964656309743024
22802520 49 18199489777506561574
2334 1 18194122047359166369
23402539 116 18129082584676376743
23419403 2 17049582098690657361
23559900 14 18128544757073275366
238 59 16962080412221096781
2748010 2 18121500429763389946
2897 32 18048322433413480161
353137 74 18043254733050647492
5255222 1 18265895765734274576
63268167 104 18047462606646222191
81228 2 18411412942662126986

> <PUBCHEM_SHAPE_MULTIPOLES>
308.69
4.59
2.43
1.28
2.11
0.01
-0.23
-0.49
0.14
-1.16
-0.29
-0.1
0.07
-0.45

> <PUBCHEM_SHAPE_SELFOVERLAP>
626.756

> <PUBCHEM_SHAPE_VOLUME>
181.2

> <PUBCHEM_COORDINATE_TYPE>
2
5
10

$$$$
