5312488
  -OEChem-12071808593D

 52 51  0     0  0  0  0  0  0999 V2000
    3.5308   -1.2872   -0.2525 O   0  0  0  0  0  0  0  0  0  0  0  0
    4.9863    0.3742    0.3048 O   0  0  0  0  0  0  0  0  0  0  0  0
    0.2058    1.9483   -0.5649 C   0  0  0  0  0  0  0  0  0  0  0  0
    1.7174    1.6967   -0.5798 C   0  0  0  0  0  0  0  0  0  0  0  0
   -0.2377    2.8730    0.5741 C   0  0  0  0  0  0  0  0  0  0  0  0
    2.1671    0.7854   -1.7265 C   0  0  0  0  0  0  0  0  0  0  0  0
   -1.7494    3.1299    0.5906 C   0  0  0  0  0  0  0  0  0  0  0  0
   -0.0889   -2.9326    0.4528 C   0  0  0  0  0  0  0  0  0  0  0  0
    0.0276   -1.5747    1.1527 C   0  0  0  0  0  0  0  0  0  0  0  0
    3.6761    0.5559   -1.7223 C   0  0  0  0  0  0  0  0  0  0  0  0
   -0.8186   -2.8640   -0.8903 C   0  0  0  0  0  0  0  0  0  0  0  0
   -2.5558    1.8763    0.7705 C   0  0  0  0  0  0  0  0  0  0  0  0
    0.8035   -1.5697    2.4718 C   0  0  0  0  0  0  0  0  0  0  0  0
   -4.2661    0.1854    0.0518 C   0  0  0  0  0  0  0  0  0  0  0  0
   -4.1017   -0.7542   -1.1474 C   0  0  0  0  0  0  0  0  0  0  0  0
   -3.4734    1.4518   -0.1106 C   0  0  0  0  0  0  0  0  0  0  0  0
   -2.2231   -2.3622   -0.7213 C   0  0  0  0  0  0  0  0  0  0  0  0
   -2.6887   -1.2442   -1.2973 C   0  0  0  0  0  0  0  0  0  0  0  0
    0.9382   -0.1900    3.0962 C   0  0  0  0  0  0  0  0  0  0  0  0
    4.1505   -0.0980   -0.4522 C   0  0  0  0  0  0  0  0  0  0  0  0
   -0.3133    0.9878   -0.4961 H   0  0  0  0  0  0  0  0  0  0  0  0
   -0.0905    2.3954   -1.5221 H   0  0  0  0  0  0  0  0  0  0  0  0
    2.0107    1.2618    0.3802 H   0  0  0  0  0  0  0  0  0  0  0  0
    2.2383    2.6589   -0.6616 H   0  0  0  0  0  0  0  0  0  0  0  0
    0.0689    2.4408    1.5344 H   0  0  0  0  0  0  0  0  0  0  0  0
    0.2806    3.8352    0.4821 H   0  0  0  0  0  0  0  0  0  0  0  0
    1.6382   -0.1728   -1.6622 H   0  0  0  0  0  0  0  0  0  0  0  0
    1.8820    1.2394   -2.6832 H   0  0  0  0  0  0  0  0  0  0  0  0
   -1.9821    3.8095    1.4190 H   0  0  0  0  0  0  0  0  0  0  0  0
   -2.0363    3.6502   -0.3314 H   0  0  0  0  0  0  0  0  0  0  0  0
   -0.6017   -3.6380    1.1188 H   0  0  0  0  0  0  0  0  0  0  0  0
    0.9169   -3.3363    0.2839 H   0  0  0  0  0  0  0  0  0  0  0  0
   -0.9711   -1.1666    1.3463 H   0  0  0  0  0  0  0  0  0  0  0  0
    0.5250   -0.8831    0.4663 H   0  0  0  0  0  0  0  0  0  0  0  0
    3.9735   -0.0761   -2.5664 H   0  0  0  0  0  0  0  0  0  0  0  0
    4.2014    1.5115   -1.8334 H   0  0  0  0  0  0  0  0  0  0  0  0
   -0.8545   -3.8656   -1.3339 H   0  0  0  0  0  0  0  0  0  0  0  0
   -0.2531   -2.2291   -1.5830 H   0  0  0  0  0  0  0  0  0  0  0  0
   -2.3631    1.2925    1.6671 H   0  0  0  0  0  0  0  0  0  0  0  0
    1.8052   -1.9831    2.3061 H   0  0  0  0  0  0  0  0  0  0  0  0
    0.3004   -2.2345    3.1840 H   0  0  0  0  0  0  0  0  0  0  0  0
   -3.9921   -0.3356    0.9778 H   0  0  0  0  0  0  0  0  0  0  0  0
   -5.3249    0.4558    0.1440 H   0  0  0  0  0  0  0  0  0  0  0  0
   -4.7798   -1.6079   -1.0227 H   0  0  0  0  0  0  0  0  0  0  0  0
   -4.4061   -0.2557   -2.0759 H   0  0  0  0  0  0  0  0  0  0  0  0
   -3.6709    2.0425   -1.0019 H   0  0  0  0  0  0  0  0  0  0  0  0
   -2.8907   -2.9640   -0.1094 H   0  0  0  0  0  0  0  0  0  0  0  0
   -2.0231   -0.6407   -1.9095 H   0  0  0  0  0  0  0  0  0  0  0  0
    1.5202    0.4757    2.4548 H   0  0  0  0  0  0  0  0  0  0  0  0
   -0.0444    0.2621    3.2638 H   0  0  0  0  0  0  0  0  0  0  0  0
    1.4507   -0.2596    4.0608 H   0  0  0  0  0  0  0  0  0  0  0  0
    3.8282   -1.7215    0.5751 H   0  0  0  0  0  0  0  0  0  0  0  0
  1 20  1  0  0  0  0
  1 52  1  0  0  0  0
  2 20  2  0  0  0  0
  3  4  1  0  0  0  0
  3  5  1  0  0  0  0
  3 21  1  0  0  0  0
  3 22  1  0  0  0  0
  4  6  1  0  0  0  0
  4 23  1  0  0  0  0
  4 24  1  0  0  0  0
  5  7  1  0  0  0  0
  5 25  1  0  0  0  0
  5 26  1  0  0  0  0
  6 10  1  0  0  0  0
  6 27  1  0  0  0  0
  6 28  1  0  0  0  0
  7 12  1  0  0  0  0
  7 29  1  0  0  0  0
  7 30  1  0  0  0  0
  8  9  1  0  0  0  0
  8 11  1  0  0  0  0
  8 31  1  0  0  0  0
  8 32  1  0  0  0  0
  9 13  1  0  0  0  0
  9 33  1  0  0  0  0
  9 34  1  0  0  0  0
 10 20  1  0  0  0  0
 10 35  1  0  0  0  0
 10 36  1  0  0  0  0
 11 17  1  0  0  0  0
 11 37  1  0  0  0  0
 11 38  1  0  0  0  0
 12 16  2  0  0  0  0
 12 39  1  0  0  0  0
 13 19  1  0  0  0  0
 13 40  1  0  0  0  0
 13 41  1  0  0  0  0
 14 15  1  0  0  0  0
 14 16  1  0  0  0  0
 14 42  1  0  0  0  0
 14 43  1  0  0  0  0
 15 18  1  0  0  0  0
 15 44  1  0  0  0  0
 15 45  1  0  0  0  0
 16 46  1  0  0  0  0
 17 18  2  0  0  0  0
 17 47  1  0  0  0  0
 18 48  1  0  0  0  0
 19 49  1  0  0  0  0
 19 50  1  0  0  0  0
 19 51  1  0  0  0  0
M  END
> <PUBCHEM_COMPOUND_CID>
5312488

> <PUBCHEM_CONFORMER_RMSD>
1.4

> <PUBCHEM_CONFORMER_DIVERSEORDER>
2
61
30
58
33
88
15
96
42
67
106
107
73
18
29
104
13
12
78
51
10
22
35
52
62
70
11
59
85
99
93
83
3
68
48
34
74
92
64
57
19
37
109
60
75
89
41
23
7
26
45
44
110
39
38
50
4
105
63
100
81
17
87
55
24
72
6
66
27
28
102
8
86
32
108
5
53
25
82
94
31
65
111
43
95
56
20
90
36
16
46
76
47
80
69
103
49
40
77
14
79
71
21
1
9
54
98
91
112
97
101
84

> <PUBCHEM_MMFF94_PARTIAL_CHARGES>
17
1 -0.65
10 0.06
11 0.14
12 -0.29
14 0.14
15 0.14
16 -0.29
17 -0.29
18 -0.29
2 -0.57
20 0.66
39 0.15
46 0.15
47 0.15
48 0.15
52 0.5
7 0.14

> <PUBCHEM_EFFECTIVE_ROTOR_COUNT>
14

> <PUBCHEM_PHARMACOPHORE_FEATURES>
6
1 1 acceptor
1 19 hydrophobe
1 2 acceptor
3 1 2 20 anion
4 14 15 16 18 hydrophobe
5 8 9 11 13 17 hydrophobe

> <PUBCHEM_HEAVY_ATOM_COUNT>
20

> <PUBCHEM_ATOM_DEF_STEREO_COUNT>
0

> <PUBCHEM_ATOM_UDEF_STEREO_COUNT>
0

> <PUBCHEM_BOND_DEF_STEREO_COUNT>
2

> <PUBCHEM_BOND_UDEF_STEREO_COUNT>
0

> <PUBCHEM_ISOTOPIC_ATOM_COUNT>
0

> <PUBCHEM_COMPONENT_COUNT>
1

> <PUBCHEM_CACTVS_TAUTO_COUNT>
1

> <PUBCHEM_CONFORMER_ID>
00510FE800000002

> <PUBCHEM_MMFF94_ENERGY>
-0.2115

> <PUBCHEM_FEATURE_SELFOVERLAP>
30.503

> <PUBCHEM_SHAPE_FINGERPRINT>
11244481 83 16916203585572037649
12035759 4 18262227842114651739
12788726 201 18270415956931378524
13947920 75 18408322190550546586
14251745 187 18131346401681494134
14251751 93 18335986372198754597
17977361 122 18411700984939271629
19930381 70 16539325372363045359
20600515 1 17912611843759493137
445580 8 18263075518435292641
57091435 65 18049732814932578087
58250162 1 18341597235969824329
6287921 2 17693377733131376531

> <PUBCHEM_SHAPE_MULTIPOLES>
399.85
7.6
3.8
2.14
3.38
0.13
1.64
0.69
-3.1
-2.06
0.36
1.11
-0.68
-1.58

> <PUBCHEM_SHAPE_SELFOVERLAP>
742.222

> <PUBCHEM_SHAPE_VOLUME>
249.6

> <PUBCHEM_COORDINATE_TYPE>
2
5
10

$$$$
