317843
  -OEChem-12071808403D

 46 50  0     1  0  0  0  0  0999 V2000
   -0.3276    2.9848    0.3588 O   0  0  0  0  0  0  0  0  0  0  0  0
   -2.6481    3.5917    0.3325 O   0  0  0  0  0  0  0  0  0  0  0  0
    4.6524   -1.2720    0.1686 O   0  0  0  0  0  0  0  0  0  0  0  0
    4.1232    1.3519   -0.5662 O   0  0  0  0  0  0  0  0  0  0  0  0
   -2.4877   -2.8043    0.0451 N   0  0  1  0  0  0  0  0  0  0  0  0
   -1.3641   -1.8781   -0.2514 C   0  0  1  0  0  0  0  0  0  0  0  0
   -1.7437   -0.3997   -0.0916 C   0  0  0  0  0  0  0  0  0  0  0  0
   -0.1411   -2.1679    0.6490 C   0  0  0  0  0  0  0  0  0  0  0  0
   -3.1101   -0.0169   -0.1060 C   0  0  0  0  0  0  0  0  0  0  0  0
   -0.7092    0.5718    0.0206 C   0  0  0  0  0  0  0  0  0  0  0  0
   -3.6842   -2.3966   -0.7078 C   0  0  0  0  0  0  0  0  0  0  0  0
   -4.1943   -1.0556   -0.1910 C   0  0  0  0  0  0  0  0  0  0  0  0
    0.9938   -1.2154    0.3454 C   0  0  0  0  0  0  0  0  0  0  0  0
    0.7041    0.1290    0.0230 C   0  0  0  0  0  0  0  0  0  0  0  0
   -1.1261    1.8939    0.1659 C   0  0  0  0  0  0  0  0  0  0  0  0
   -3.4678    1.3281    0.0306 C   0  0  0  0  0  0  0  0  0  0  0  0
   -2.4582    2.2533    0.1665 C   0  0  0  0  0  0  0  0  0  0  0  0
   -2.1638   -4.1950   -0.2911 C   0  0  0  0  0  0  0  0  0  0  0  0
    2.3198   -1.6711    0.4090 C   0  0  0  0  0  0  0  0  0  0  0  0
    1.7868    0.9662   -0.2977 C   0  0  0  0  0  0  0  0  0  0  0  0
    3.3724   -0.8123    0.1121 C   0  0  0  0  0  0  0  0  0  0  0  0
    3.1052    0.5022   -0.2508 C   0  0  0  0  0  0  0  0  0  0  0  0
   -1.2907    4.0493    0.4461 C   0  0  0  0  0  0  0  0  0  0  0  0
    5.3351   -1.1402    1.4144 C   0  0  0  0  0  0  0  0  0  0  0  0
    4.5239    1.4026   -1.9337 C   0  0  0  0  0  0  0  0  0  0  0  0
   -1.0696   -2.0021   -1.3052 H   0  0  0  0  0  0  0  0  0  0  0  0
    0.2159   -3.1906    0.4874 H   0  0  0  0  0  0  0  0  0  0  0  0
   -0.4019   -2.0703    1.7113 H   0  0  0  0  0  0  0  0  0  0  0  0
   -4.4904   -3.1300   -0.5811 H   0  0  0  0  0  0  0  0  0  0  0  0
   -3.4683   -2.3372   -1.7835 H   0  0  0  0  0  0  0  0  0  0  0  0
   -4.6233   -1.1859    0.8108 H   0  0  0  0  0  0  0  0  0  0  0  0
   -4.9950   -0.7046   -0.8532 H   0  0  0  0  0  0  0  0  0  0  0  0
   -4.5087    1.6343    0.0447 H   0  0  0  0  0  0  0  0  0  0  0  0
   -1.3782   -4.5923    0.3581 H   0  0  0  0  0  0  0  0  0  0  0  0
   -1.8493   -4.3057   -1.3350 H   0  0  0  0  0  0  0  0  0  0  0  0
   -3.0323   -4.8436   -0.1264 H   0  0  0  0  0  0  0  0  0  0  0  0
    2.5286   -2.7033    0.6808 H   0  0  0  0  0  0  0  0  0  0  0  0
    1.6267    1.9953   -0.6075 H   0  0  0  0  0  0  0  0  0  0  0  0
   -1.0928    4.7699   -0.3557 H   0  0  0  0  0  0  0  0  0  0  0  0
   -1.1688    4.5553    1.4105 H   0  0  0  0  0  0  0  0  0  0  0  0
    6.3430   -1.5474    1.2974 H   0  0  0  0  0  0  0  0  0  0  0  0
    4.8175   -1.7049    2.1964 H   0  0  0  0  0  0  0  0  0  0  0  0
    5.4139   -0.0867    1.7007 H   0  0  0  0  0  0  0  0  0  0  0  0
    3.6953    1.7410   -2.5639 H   0  0  0  0  0  0  0  0  0  0  0  0
    4.8752    0.4217   -2.2693 H   0  0  0  0  0  0  0  0  0  0  0  0
    5.3461    2.1177   -2.0234 H   0  0  0  0  0  0  0  0  0  0  0  0
  1 15  1  0  0  0  0
  1 23  1  0  0  0  0
  2 17  1  0  0  0  0
  2 23  1  0  0  0  0
  3 21  1  0  0  0  0
  3 24  1  0  0  0  0
  4 22  1  0  0  0  0
  4 25  1  0  0  0  0
  5  6  1  0  0  0  0
  5 11  1  0  0  0  0
  5 18  1  0  0  0  0
  6  7  1  0  0  0  0
  6  8  1  0  0  0  0
  6 26  1  0  0  0  0
  7  9  1  0  0  0  0
  7 10  2  0  0  0  0
  8 13  1  0  0  0  0
  8 27  1  0  0  0  0
  8 28  1  0  0  0  0
  9 12  1  0  0  0  0
  9 16  2  0  0  0  0
 10 14  1  0  0  0  0
 10 15  1  0  0  0  0
 11 12  1  0  0  0  0
 11 29  1  0  0  0  0
 11 30  1  0  0  0  0
 12 31  1  0  0  0  0
 12 32  1  0  0  0  0
 13 14  1  0  0  0  0
 13 19  2  0  0  0  0
 14 20  2  0  0  0  0
 15 17  2  0  0  0  0
 16 17  1  0  0  0  0
 16 33  1  0  0  0  0
 18 34  1  0  0  0  0
 18 35  1  0  0  0  0
 18 36  1  0  0  0  0
 19 21  1  0  0  0  0
 19 37  1  0  0  0  0
 20 22  1  0  0  0  0
 20 38  1  0  0  0  0
 21 22  2  0  0  0  0
 23 39  1  0  0  0  0
 23 40  1  0  0  0  0
 24 41  1  0  0  0  0
 24 42  1  0  0  0  0
 24 43  1  0  0  0  0
 25 44  1  0  0  0  0
 25 45  1  0  0  0  0
 25 46  1  0  0  0  0
M  END
> <PUBCHEM_COMPOUND_CID>
317843

> <PUBCHEM_CONFORMER_RMSD>
0.6

> <PUBCHEM_CONFORMER_DIVERSEORDER>
2
3
1

> <PUBCHEM_MMFF94_PARTIAL_CHARGES>
26
1 -0.36
11 0.27
12 0.14
13 -0.14
15 0.08
16 -0.15
17 0.08
18 0.27
19 -0.15
2 -0.36
20 -0.15
21 0.08
22 0.08
23 0.56
24 0.28
25 0.28
3 -0.36
33 0.15
37 0.15
38 0.15
4 -0.36
5 -0.81
6 0.41
7 -0.14
8 0.14
9 -0.14

> <PUBCHEM_EFFECTIVE_ROTOR_COUNT>
3.4

> <PUBCHEM_PHARMACOPHORE_FEATURES>
10
1 1 acceptor
1 2 acceptor
1 3 acceptor
1 4 acceptor
1 5 cation
5 1 2 15 17 23 rings
6 13 14 19 20 21 22 rings
6 5 6 7 9 11 12 rings
6 6 7 8 10 13 14 rings
6 7 9 10 15 16 17 rings

> <PUBCHEM_HEAVY_ATOM_COUNT>
25

> <PUBCHEM_ATOM_DEF_STEREO_COUNT>
1

> <PUBCHEM_ATOM_UDEF_STEREO_COUNT>
0

> <PUBCHEM_BOND_DEF_STEREO_COUNT>
0

> <PUBCHEM_BOND_UDEF_STEREO_COUNT>
0

> <PUBCHEM_ISOTOPIC_ATOM_COUNT>
0

> <PUBCHEM_COMPONENT_COUNT>
1

> <PUBCHEM_CACTVS_TAUTO_COUNT>
1

> <PUBCHEM_CONFORMER_ID>
0004D99300000002

> <PUBCHEM_MMFF94_ENERGY>
94.9736

> <PUBCHEM_FEATURE_SELFOVERLAP>
50.995

> <PUBCHEM_SHAPE_FINGERPRINT>
10319926 262 18126539286344857954
10411042 1 18195240242343522171
10498660 4 18410576227335597332
10616163 171 18411982429603765190
10967382 1 17114098323051823251
1100329 8 18411703222960487641
11578080 2 17462527845192571485
12107183 9 17831290611165906770
12173636 292 18196647402446373765
12403260 363 18334852793175067330
12553582 1 18268146633803904591
12788726 201 18337117846904426170
12954195 1 18269015162354051548
13027679 85 18338517568636299333
13140716 1 18337389447667206875
13583140 156 17488724724027264098
138480 1 16178197787848594841
14081887 123 18342161289434584816
14117953 113 17974002856047281084
14178342 30 18265034852910289218
14739800 52 18339072818162414680
14787075 74 18041568065018114739
14790565 3 18269001878021068649
15042514 8 18410576184634071539
15196674 1 18408603668914973646
15420108 30 17615111201600749008
16087824 20 18340200788469989893
17349148 13 18113332007894306114
17492 89 18408887313252005002
17818456 19 18337383847525549522
19319366 153 17968373550045331619
19591789 44 17329995694382557750
19930381 70 17474102580375788059
20510252 161 18200029521846329537
20642791 105 18264757766831050569
20642791 35 18124882506150641913
20739085 24 17255129943758082408
20775438 99 16760234735243761375
21267235 1 18408609162173520171
2334 1 18410570661490335803
23402539 116 18271514347672722071
23557571 272 18131350778875537594
23558518 356 18192153698323822627
23559900 14 18342172285226140824
238 59 16455135170266240205
25147074 1 18113621179979684886
2748010 2 17255115074591950379
3091708 16 9203934342350355323
335352 9 18337951186360411119
350125 39 18337110038453701240
352729 6 18123746461752306403
5104073 3 18409166627780109816
532947 4 17259908940472132836
67856867 119 18261387914785762716
7097593 13 17973152942602404162
7164475 11 18411419518742555238
7364860 26 17547851210697202583
9709674 26 18343024354829100102
9981440 41 18049720716194283297

> <PUBCHEM_SHAPE_MULTIPOLES>
486.03
8.61
4.55
0.94
9.29
1.29
-0.2
-1.99
-0.69
-4.65
0.34
1.12
0.08
-1.84

> <PUBCHEM_SHAPE_SELFOVERLAP>
1086.822

> <PUBCHEM_SHAPE_VOLUME>
258.8

> <PUBCHEM_COORDINATE_TYPE>
2
5
10

$$$$
