11829420
  -OEChem-12071809003D

 19 18  0     1  0  0  0  0  0999 V2000
   -1.4790    1.4771    0.3133 O   0  0  0  0  0  0  0  0  0  0  0  0
   -1.6467   -0.2971   -1.0886 O   0  0  0  0  0  0  0  0  0  0  0  0
   -0.3068   -1.8249    0.8309 N   1  0  0  0  0  0  0  0  0  0  0  0
    1.3617   -0.0437    0.2330 C   0  0  1  0  0  0  0  0  0  0  0  0
   -0.0516   -0.3854    0.7611 C   0  0  1  0  0  0  0  0  0  0  0  0
    1.5937   -0.6193   -1.1681 C   0  0  0  0  0  0  0  0  0  0  0  0
    1.6612    1.4604    0.2303 C   0  0  0  0  0  0  0  0  0  0  0  0
   -1.1325    0.2329   -0.1120 C   0  0  0  0  0  0  0  0  0  0  0  0
    2.0895   -0.5151    0.9077 H   0  0  0  0  0  0  0  0  0  0  0  0
   -0.1646    0.0137    1.7768 H   0  0  0  0  0  0  0  0  0  0  0  0
    2.6269   -0.4363   -1.4848 H   1  0  0  0  0  0  0  0  0  0  0  0
    0.9394   -0.1584   -1.9149 H   1  0  0  0  0  0  0  0  0  0  0  0
    1.4375   -1.7022   -1.1943 H   1  0  0  0  0  0  0  0  0  0  0  0
    1.4720    1.8950    1.2172 H   0  0  0  0  0  0  0  0  0  0  0  0
    1.0532    1.9965   -0.5054 H   0  0  0  0  0  0  0  0  0  0  0  0
    2.7131    1.6403   -0.0172 H   0  0  0  0  0  0  0  0  0  0  0  0
   -1.2000   -1.9927    1.2927 H   0  0  0  0  0  0  0  0  0  0  0  0
    0.4026   -2.2682    1.4133 H   0  0  0  0  0  0  0  0  0  0  0  0
   -2.1735    1.8761   -0.2529 H   0  0  0  0  0  0  0  0  0  0  0  0
  1  8  1  0  0  0  0
  1 19  1  0  0  0  0
  2  8  2  0  0  0  0
  3  5  1  0  0  0  0
  3 17  1  0  0  0  0
  3 18  1  0  0  0  0
  4  5  1  0  0  0  0
  4  6  1  0  0  0  0
  4  7  1  0  0  0  0
  4  9  1  0  0  0  0
  5  8  1  0  0  0  0
  5 10  1  0  0  0  0
  6 11  1  0  0  0  0
  6 12  1  0  0  0  0
  6 13  1  0  0  0  0
  7 14  1  0  0  0  0
  7 15  1  0  0  0  0
  7 16  1  0  0  0  0
M  ISO  4   3  15  11   2  12   2  13   2
M  END
> <PUBCHEM_COMPOUND_CID>
11829420

> <PUBCHEM_CONFORMER_RMSD>
0.4

> <PUBCHEM_CONFORMER_DIVERSEORDER>
2
4
8
5
7
3
1
6

> <PUBCHEM_MMFF94_PARTIAL_CHARGES>
8
1 -0.65
17 0.36
18 0.36
19 0.5
2 -0.57
3 -0.99
5 0.33
8 0.66

> <PUBCHEM_EFFECTIVE_ROTOR_COUNT>
2

> <PUBCHEM_PHARMACOPHORE_FEATURES>
6
1 1 acceptor
1 2 acceptor
1 3 cation
1 3 donor
3 1 2 8 anion
3 4 6 7 hydrophobe

> <PUBCHEM_HEAVY_ATOM_COUNT>
8

> <PUBCHEM_ATOM_DEF_STEREO_COUNT>
1

> <PUBCHEM_ATOM_UDEF_STEREO_COUNT>
0

> <PUBCHEM_BOND_DEF_STEREO_COUNT>
0

> <PUBCHEM_BOND_UDEF_STEREO_COUNT>
0

> <PUBCHEM_ISOTOPIC_ATOM_COUNT>
4

> <PUBCHEM_COMPONENT_COUNT>
1

> <PUBCHEM_CACTVS_TAUTO_COUNT>
1

> <PUBCHEM_CONFORMER_ID>
00B480AC00000002

> <PUBCHEM_MMFF94_ENERGY>
6.7684

> <PUBCHEM_FEATURE_SELFOVERLAP>
30.505

> <PUBCHEM_SHAPE_FINGERPRINT>
12423570 1 15393406678613792458
137420 1 12524686283714486843
18185500 45 17833818387706741963
20096714 4 18338234843180644273
21040471 1 18113339699795468248
23552449 1 17759236684475862280
24536 1 18337961198108571220
29004967 10 12031502271658159670
5084963 1 18264467603230120700
5943 1 16398787664474235298

> <PUBCHEM_SHAPE_MULTIPOLES>
147.92
2.24
1.53
1.07
0.21
0.09
-0.18
0.52
-0.49
-0.02
0.31
0
-0.32
0.26

> <PUBCHEM_SHAPE_SELFOVERLAP>
273.288

> <PUBCHEM_SHAPE_VOLUME>
92.9

> <PUBCHEM_COORDINATE_TYPE>
2
5
10

$$$$
