124306166
  -OEChem-12071808443D

 35 35  0     1  0  0  0  0  0999 V2000
    0.1791   -2.8985    0.4228 O   0  0  0  0  0  0  0  0  0  0  0  0
   -1.0550    2.2650    0.8366 O   0  0  0  0  0  0  0  0  0  0  0  0
    0.4466    0.5541    1.1309 N   0  0  0  0  0  0  0  0  0  0  0  0
   -1.2427   -1.1460   -0.0217 N   0  0  0  0  0  0  0  0  0  0  0  0
    1.0579   -0.6685    0.6357 C   0  0  2  0  0  0  0  0  0  0  0  0
   -1.3793    0.2379   -0.4482 C   0  0  1  0  0  0  0  0  0  0  0  0
    1.9268   -0.4356   -0.5905 C   0  0  0  0  0  0  0  0  0  0  0  0
   -2.8444    0.6129   -0.6182 C   0  0  0  0  0  0  0  0  0  0  0  0
    2.9980    0.6504   -0.3887 C   0  0  0  0  0  0  0  0  0  0  0  0
   -0.0350   -1.6883    0.3752 C   0  0  0  0  0  0  0  0  0  0  0  0
   -0.6941    1.1163    0.5872 C   0  0  0  0  0  0  0  0  0  0  0  0
   -3.5072   -0.2569   -1.6874 C   0  0  0  0  0  0  0  0  0  0  0  0
   -3.5945    0.4884    0.7085 C   0  0  0  0  0  0  0  0  0  0  0  0
    3.9650    0.3112    0.7464 C   0  0  0  0  0  0  0  0  0  0  0  0
    3.7789    0.8578   -1.6886 C   0  0  0  0  0  0  0  0  0  0  0  0
    1.6571   -1.0618    1.4647 H   0  0  0  0  0  0  0  0  0  0  0  0
   -0.8477    0.3535   -1.3989 H   0  0  0  0  0  0  0  0  0  0  0  0
    2.4094   -1.3820   -0.8698 H   0  0  0  0  0  0  0  0  0  0  0  0
    1.3078   -0.1595   -1.4521 H   0  0  0  0  0  0  0  0  0  0  0  0
   -2.9097    1.6579   -0.9483 H   0  0  0  0  0  0  0  0  0  0  0  0
    2.5106    1.6038   -0.1507 H   0  0  0  0  0  0  0  0  0  0  0  0
    0.9656    1.1040    1.8088 H   0  0  0  0  0  0  0  0  0  0  0  0
   -1.9771   -1.8095   -0.2452 H   0  0  0  0  0  0  0  0  0  0  0  0
   -3.6329   -1.2973   -1.3730 H   0  0  0  0  0  0  0  0  0  0  0  0
   -2.9298   -0.2443   -2.6179 H   0  0  0  0  0  0  0  0  0  0  0  0
   -4.5069    0.1292   -1.9170 H   0  0  0  0  0  0  0  0  0  0  0  0
   -3.5801   -0.5354    1.0974 H   0  0  0  0  0  0  0  0  0  0  0  0
   -4.6467    0.7627    0.5686 H   0  0  0  0  0  0  0  0  0  0  0  0
   -3.1998    1.1499    1.4842 H   0  0  0  0  0  0  0  0  0  0  0  0
    3.1069    1.1418   -2.5054 H   0  0  0  0  0  0  0  0  0  0  0  0
    4.5198    1.6563   -1.5752 H   0  0  0  0  0  0  0  0  0  0  0  0
    4.7667    1.0554    0.8080 H   0  0  0  0  0  0  0  0  0  0  0  0
    3.4600    0.3042    1.7168 H   0  0  0  0  0  0  0  0  0  0  0  0
    4.4278   -0.6697    0.5937 H   0  0  0  0  0  0  0  0  0  0  0  0
    4.3072   -0.0548   -1.9852 H   0  0  0  0  0  0  0  0  0  0  0  0
  1 10  2  0  0  0  0
  2 11  2  0  0  0  0
  3  5  1  0  0  0  0
  3 11  1  0  0  0  0
  3 22  1  0  0  0  0
  4  6  1  0  0  0  0
  4 10  1  0  0  0  0
  4 23  1  0  0  0  0
  5  7  1  0  0  0  0
  5 10  1  0  0  0  0
  5 16  1  0  0  0  0
  6  8  1  0  0  0  0
  6 11  1  0  0  0  0
  6 17  1  0  0  0  0
  7  9  1  0  0  0  0
  7 18  1  0  0  0  0
  7 19  1  0  0  0  0
  8 12  1  0  0  0  0
  8 13  1  0  0  0  0
  8 20  1  0  0  0  0
  9 14  1  0  0  0  0
  9 15  1  0  0  0  0
  9 21  1  0  0  0  0
 12 24  1  0  0  0  0
 12 25  1  0  0  0  0
 12 26  1  0  0  0  0
 13 27  1  0  0  0  0
 13 28  1  0  0  0  0
 13 29  1  0  0  0  0
 14 32  1  0  0  0  0
 14 33  1  0  0  0  0
 14 34  1  0  0  0  0
 15 30  1  0  0  0  0
 15 31  1  0  0  0  0
 15 35  1  0  0  0  0
M  END
> <PUBCHEM_COMPOUND_CID>
124306166

> <PUBCHEM_CONFORMER_RMSD>
0.6

> <PUBCHEM_CONFORMER_DIVERSEORDER>
1
5
13
2
12
7
9
16
4
3
10
8
14
6
11
15

> <PUBCHEM_MMFF94_PARTIAL_CHARGES>
10
1 -0.57
10 0.57
11 0.57
2 -0.57
22 0.37
23 0.37
3 -0.73
4 -0.73
5 0.36
6 0.36

> <PUBCHEM_EFFECTIVE_ROTOR_COUNT>
3.8

> <PUBCHEM_PHARMACOPHORE_FEATURES>
7
1 1 acceptor
1 2 acceptor
1 3 donor
1 4 donor
3 8 12 13 hydrophobe
3 9 14 15 hydrophobe
6 3 4 5 6 10 11 rings

> <PUBCHEM_HEAVY_ATOM_COUNT>
15

> <PUBCHEM_ATOM_DEF_STEREO_COUNT>
2

> <PUBCHEM_ATOM_UDEF_STEREO_COUNT>
0

> <PUBCHEM_BOND_DEF_STEREO_COUNT>
0

> <PUBCHEM_BOND_UDEF_STEREO_COUNT>
0

> <PUBCHEM_ISOTOPIC_ATOM_COUNT>
0

> <PUBCHEM_COMPONENT_COUNT>
1

> <PUBCHEM_CACTVS_TAUTO_COUNT>
4

> <PUBCHEM_CONFORMER_ID>
0768C2F600000001

> <PUBCHEM_MMFF94_ENERGY>
42.1038

> <PUBCHEM_FEATURE_SELFOVERLAP>
35.529

> <PUBCHEM_SHAPE_FINGERPRINT>
12119455 92 17385992966902132222
12138202 97 18336273452271414334
12202030 40 14763759959141355501
12251169 10 11386374763548010068
12592029 89 17603301514473219794
13296909 8 13551187793039186631
13583140 156 16587738750349700480
15775835 57 17603873338108655852
16945 1 18272369775902624432
17846911 113 18413102870733314040
18186145 218 18411420622237861988
18534176 82 18268726059214833390
187816 3 18341891913491457932
20645476 183 17968379047718936394
20645477 56 18189344622761953916
20653085 51 17458632241514826070
20671657 53 14836127684288471624
20871999 31 18196378228045021926
21499 59 18260265248155662535
21524375 3 18113330912387592482
228727 97 18272653406995239193
23382010 3 18265324178395789044
23402539 116 18271515442905115676
23419403 2 17127886099653165010
23552423 10 18050845512083520635
23557571 272 17983863556183228368
23559900 14 18343021142937062240
265663 24 16732977639319653832
2748010 2 17981881161802375936
3071541 236 18261953063229696418
3250762 1 17619621827451789145
353137 74 18341049614438424553
4369600 1 18271229586787313681
449060 23 17274808195312644773
53812653 8 18340770338574516937
7364860 26 18054224328485301234

> <PUBCHEM_SHAPE_MULTIPOLES>
286.99
6.45
1.86
1.33
1.93
1.03
0.44
-2.12
2.09
-0.14
-0.43
0.02
-0.31
-0.61

> <PUBCHEM_SHAPE_SELFOVERLAP>
569.164

> <PUBCHEM_SHAPE_VOLUME>
169.6

> <PUBCHEM_COORDINATE_TYPE>
2
5
10

$$$$
