11958028
  -OEChem-12071808463D

 39 40  0     1  0  0  0  0  0999 V2000
   -0.7882   -0.6180    0.6107 C   0  0  2  0  0  0  0  0  0  0  0  0
   -1.8667   -1.7231    0.5328 C   0  0  1  0  0  0  0  0  0  0  0  0
   -1.4884    0.5838    0.0083 C   0  0  0  0  0  0  0  0  0  0  0  0
    0.5370   -0.9577   -0.0899 C   0  0  0  0  0  0  0  0  0  0  0  0
   -2.6544   -1.3698   -0.7235 C   0  0  0  0  0  0  0  0  0  0  0  0
   -2.7815    0.1449   -0.6390 C   0  0  0  0  0  0  0  0  0  0  0  0
    1.5351    0.2112   -0.2228 C   0  0  1  0  0  0  0  0  0  0  0  0
   -1.0381    1.8546    0.0513 C   0  0  0  0  0  0  0  0  0  0  0  0
    1.3986    1.2534    0.8970 C   0  0  0  0  0  0  0  0  0  0  0  0
    0.2968    2.2910    0.6269 C   0  0  0  0  0  0  0  0  0  0  0  0
   -1.3692   -3.1606    0.5350 C   0  0  0  0  0  0  0  0  0  0  0  0
    2.9330   -0.3335   -0.2772 C   0  0  0  0  0  0  0  0  0  0  0  0
   -1.8395    3.0107   -0.4996 C   0  0  0  0  0  0  0  0  0  0  0  0
    3.4386   -0.7234   -1.6345 C   0  0  0  0  0  0  0  0  0  0  0  0
    3.6868   -0.4636    0.8246 C   0  0  0  0  0  0  0  0  0  0  0  0
   -0.5968   -0.4392    1.6763 H   0  0  0  0  0  0  0  0  0  0  0  0
   -2.5353   -1.6053    1.3988 H   0  0  0  0  0  0  0  0  0  0  0  0
    1.0033   -1.7813    0.4678 H   0  0  0  0  0  0  0  0  0  0  0  0
    0.3416   -1.3522   -1.0963 H   0  0  0  0  0  0  0  0  0  0  0  0
   -3.6338   -1.8579   -0.7512 H   0  0  0  0  0  0  0  0  0  0  0  0
   -2.1078   -1.6589   -1.6298 H   0  0  0  0  0  0  0  0  0  0  0  0
   -3.6287    0.4169    0.0007 H   0  0  0  0  0  0  0  0  0  0  0  0
   -2.9266    0.5712   -1.6360 H   0  0  0  0  0  0  0  0  0  0  0  0
    1.3444    0.7287   -1.1737 H   0  0  0  0  0  0  0  0  0  0  0  0
    2.3263    1.8316    1.0105 H   0  0  0  0  0  0  0  0  0  0  0  0
    1.2226    0.7763    1.8691 H   0  0  0  0  0  0  0  0  0  0  0  0
    0.7279    3.0150   -0.0796 H   0  0  0  0  0  0  0  0  0  0  0  0
    0.1113    2.8495    1.5534 H   0  0  0  0  0  0  0  0  0  0  0  0
   -2.2159   -3.8554    0.5457 H   0  0  0  0  0  0  0  0  0  0  0  0
   -0.7698   -3.3909   -0.3513 H   0  0  0  0  0  0  0  0  0  0  0  0
   -0.7618   -3.3587    1.4239 H   0  0  0  0  0  0  0  0  0  0  0  0
   -1.3324    3.4400   -1.3699 H   0  0  0  0  0  0  0  0  0  0  0  0
   -1.9416    3.7918    0.2617 H   0  0  0  0  0  0  0  0  0  0  0  0
   -2.8515    2.7336   -0.8061 H   0  0  0  0  0  0  0  0  0  0  0  0
    2.7982   -1.4940   -2.0754 H   0  0  0  0  0  0  0  0  0  0  0  0
    3.4488    0.1448   -2.3016 H   0  0  0  0  0  0  0  0  0  0  0  0
    4.4576   -1.1227   -1.5949 H   0  0  0  0  0  0  0  0  0  0  0  0
    4.6964   -0.8579    0.7602 H   0  0  0  0  0  0  0  0  0  0  0  0
    3.3359   -0.2135    1.8188 H   0  0  0  0  0  0  0  0  0  0  0  0
  1  2  1  0  0  0  0
  1  3  1  0  0  0  0
  1  4  1  0  0  0  0
  1 16  1  0  0  0  0
  2  5  1  0  0  0  0
  2 11  1  0  0  0  0
  2 17  1  0  0  0  0
  3  6  1  0  0  0  0
  3  8  2  0  0  0  0
  4  7  1  0  0  0  0
  4 18  1  0  0  0  0
  4 19  1  0  0  0  0
  5  6  1  0  0  0  0
  5 20  1  0  0  0  0
  5 21  1  0  0  0  0
  6 22  1  0  0  0  0
  6 23  1  0  0  0  0
  7  9  1  0  0  0  0
  7 12  1  0  0  0  0
  7 24  1  0  0  0  0
  8 10  1  0  0  0  0
  8 13  1  0  0  0  0
  9 10  1  0  0  0  0
  9 25  1  0  0  0  0
  9 26  1  0  0  0  0
 10 27  1  0  0  0  0
 10 28  1  0  0  0  0
 11 29  1  0  0  0  0
 11 30  1  0  0  0  0
 11 31  1  0  0  0  0
 12 14  1  0  0  0  0
 12 15  2  0  0  0  0
 13 32  1  0  0  0  0
 13 33  1  0  0  0  0
 13 34  1  0  0  0  0
 14 35  1  0  0  0  0
 14 36  1  0  0  0  0
 14 37  1  0  0  0  0
 15 38  1  0  0  0  0
 15 39  1  0  0  0  0
M  END
> <PUBCHEM_COMPOUND_CID>
11958028

> <PUBCHEM_CONFORMER_RMSD>
0.6

> <PUBCHEM_CONFORMER_DIVERSEORDER>
6
3
11
1
12
4
2
9
8
14
13
7
10
5
15

> <PUBCHEM_MMFF94_PARTIAL_CHARGES>
12
1 0.14
10 0.14
12 -0.28
13 0.14
14 0.14
15 -0.3
3 -0.28
38 0.15
39 0.15
6 0.14
7 0.14
8 -0.28

> <PUBCHEM_EFFECTIVE_ROTOR_COUNT>
2.4

> <PUBCHEM_PHARMACOPHORE_FEATURES>
2
5 1 2 3 5 6 rings
7 1 3 4 7 8 9 10 rings

> <PUBCHEM_HEAVY_ATOM_COUNT>
15

> <PUBCHEM_ATOM_DEF_STEREO_COUNT>
1

> <PUBCHEM_ATOM_UDEF_STEREO_COUNT>
2

> <PUBCHEM_BOND_DEF_STEREO_COUNT>
0

> <PUBCHEM_BOND_UDEF_STEREO_COUNT>
0

> <PUBCHEM_ISOTOPIC_ATOM_COUNT>
0

> <PUBCHEM_COMPONENT_COUNT>
1

> <PUBCHEM_CACTVS_TAUTO_COUNT>
1

> <PUBCHEM_CONFORMER_ID>
00B6770C00000006

> <PUBCHEM_MMFF94_ENERGY>
34.5708

> <PUBCHEM_FEATURE_SELFOVERLAP>
10.186

> <PUBCHEM_SHAPE_FINGERPRINT>
1 1 17399234149175443789
11127187 94 18334863843640805303
11206711 2 18410573946539184165
11578080 2 17098577359422425980
11680986 33 17979069711034480139
12138202 78 18125431162336851145
12138202 97 18195534683730761788
12423570 1 17259613172070725059
12524768 44 18053094309619951587
12553582 1 18337963397100516170
12716758 59 18268714896447001410
13140716 1 18338799047301270779
14115302 16 18186238450203875302
14614273 12 18117551830194640437
14817 1 9655571945877865225
16752209 62 18263636286307983147
16945 1 18408042896562725504
17990270 104 17760642968532616019
19591789 44 18123755253671700217
19868273 325 18337960098401699775
20510252 161 18341892935609486480
20645476 183 17970365719116757884
20645477 70 16823045522080116979
20711985 344 18409442579302406529
20871999 31 18340776940008108700
21501502 16 18341050817103406328
21524375 3 17829327982393276777
22721475 48 18270684280480422928
22802520 49 18341614887953101393
2334 1 18050286173975945259
23402539 116 18340471318809460967
23419403 2 17344312723103243169
23557571 272 18272090487808319200
23559900 14 18055911005877921514
2748010 2 18123182665373777691
3071541 37 17543350454185870461
3084891 72 18337379466448040715
576247 118 17981361006998303670
7364860 26 17547579639545934873
81228 2 18341058440575099544
8809292 202 18341334405398763530
9709674 26 18342738482069472878

> <PUBCHEM_SHAPE_MULTIPOLES>
308.69
5.03
3.06
1.07
4.14
0.47
-0.21
-1.48
-1.18
-2.54
0.36
0.6
-0.13
0.63

> <PUBCHEM_SHAPE_SELFOVERLAP>
628.893

> <PUBCHEM_SHAPE_VOLUME>
176.7

> <PUBCHEM_COORDINATE_TYPE>
2
5
10

$$$$
