5318539
  -OEChem-12071808423D

 38 39  0     1  0  0  0  0  0999 V2000
   -1.0399   -2.0055   -1.0067 O   0  0  0  0  0  0  0  0  0  0  0  0
   -1.9338    0.2598   -0.6541 C   0  0  0  0  0  0  0  0  0  0  0  0
   -1.0065    0.6645    0.5699 C   0  0  2  0  0  0  0  0  0  0  0  0
   -2.1248   -1.2661   -0.4558 C   0  0  2  0  0  0  0  0  0  0  0  0
   -1.6192   -0.2071    1.7080 C   0  0  0  0  0  0  0  0  0  0  0  0
   -2.1710   -1.4839    1.0587 C   0  0  0  0  0  0  0  0  0  0  0  0
   -1.3670    0.5953   -2.0449 C   0  0  0  0  0  0  0  0  0  0  0  0
   -3.3330    0.9298   -0.5802 C   0  0  0  0  0  0  0  0  0  0  0  0
   -1.1649    2.1476    0.9932 C   0  0  0  0  0  0  0  0  0  0  0  0
    0.5006    0.3812    0.3330 C   0  0  0  0  0  0  0  0  0  0  0  0
    1.0140   -0.8878    0.5859 C   0  0  0  0  0  0  0  0  0  0  0  0
    1.3313    1.3976   -0.1304 C   0  0  0  0  0  0  0  0  0  0  0  0
    2.3689   -1.1423    0.3739 C   0  0  0  0  0  0  0  0  0  0  0  0
    2.6863    1.1431   -0.3425 C   0  0  0  0  0  0  0  0  0  0  0  0
    3.2051   -0.1271   -0.0904 C   0  0  0  0  0  0  0  0  0  0  0  0
    4.6539   -0.3987   -0.3174 C   0  0  0  0  0  0  0  0  0  0  0  0
   -3.0375   -1.6335   -0.9379 H   0  0  0  0  0  0  0  0  0  0  0  0
   -2.4539    0.3086    2.2000 H   0  0  0  0  0  0  0  0  0  0  0  0
   -0.9041   -0.4367    2.5063 H   0  0  0  0  0  0  0  0  0  0  0  0
   -1.6202   -2.3739    1.3786 H   0  0  0  0  0  0  0  0  0  0  0  0
   -3.2095   -1.6191    1.3845 H   0  0  0  0  0  0  0  0  0  0  0  0
   -0.4029    0.1148   -2.2365 H   0  0  0  0  0  0  0  0  0  0  0  0
   -2.0500    0.2631   -2.8354 H   0  0  0  0  0  0  0  0  0  0  0  0
   -1.2261    1.6756   -2.1595 H   0  0  0  0  0  0  0  0  0  0  0  0
   -3.9935    0.5345   -1.3615 H   0  0  0  0  0  0  0  0  0  0  0  0
   -3.8337    0.7575    0.3775 H   0  0  0  0  0  0  0  0  0  0  0  0
   -3.2672    2.0120   -0.7365 H   0  0  0  0  0  0  0  0  0  0  0  0
   -1.0242    2.8359    0.1531 H   0  0  0  0  0  0  0  0  0  0  0  0
   -2.1663    2.3555    1.3877 H   0  0  0  0  0  0  0  0  0  0  0  0
   -0.4608    2.4175    1.7898 H   0  0  0  0  0  0  0  0  0  0  0  0
   -1.2097   -2.9473   -0.8339 H   0  0  0  0  0  0  0  0  0  0  0  0
    0.4271   -1.7039    0.9834 H   0  0  0  0  0  0  0  0  0  0  0  0
    0.9717    2.3927   -0.3657 H   0  0  0  0  0  0  0  0  0  0  0  0
    2.7640   -2.1329    0.5834 H   0  0  0  0  0  0  0  0  0  0  0  0
    3.3274    1.9409   -0.7083 H   0  0  0  0  0  0  0  0  0  0  0  0
    5.2238   -0.1801    0.5910 H   0  0  0  0  0  0  0  0  0  0  0  0
    4.8215   -1.4454   -0.5934 H   0  0  0  0  0  0  0  0  0  0  0  0
    5.0472    0.2147   -1.1352 H   0  0  0  0  0  0  0  0  0  0  0  0
  1  4  1  0  0  0  0
  1 31  1  0  0  0  0
  2  3  1  0  0  0  0
  2  4  1  0  0  0  0
  2  7  1  0  0  0  0
  2  8  1  0  0  0  0
  3  5  1  0  0  0  0
  3  9  1  0  0  0  0
  3 10  1  0  0  0  0
  4  6  1  0  0  0  0
  4 17  1  0  0  0  0
  5  6  1  0  0  0  0
  5 18  1  0  0  0  0
  5 19  1  0  0  0  0
  6 20  1  0  0  0  0
  6 21  1  0  0  0  0
  7 22  1  0  0  0  0
  7 23  1  0  0  0  0
  7 24  1  0  0  0  0
  8 25  1  0  0  0  0
  8 26  1  0  0  0  0
  8 27  1  0  0  0  0
  9 28  1  0  0  0  0
  9 29  1  0  0  0  0
  9 30  1  0  0  0  0
 10 11  2  0  0  0  0
 10 12  1  0  0  0  0
 11 13  1  0  0  0  0
 11 32  1  0  0  0  0
 12 14  2  0  0  0  0
 12 33  1  0  0  0  0
 13 15  2  0  0  0  0
 13 34  1  0  0  0  0
 14 15  1  0  0  0  0
 14 35  1  0  0  0  0
 15 16  1  0  0  0  0
 16 36  1  0  0  0  0
 16 37  1  0  0  0  0
 16 38  1  0  0  0  0
M  END
> <PUBCHEM_COMPOUND_CID>
5318539

> <PUBCHEM_CONFORMER_RMSD>
0.6

> <PUBCHEM_CONFORMER_DIVERSEORDER>
2
3
1

> <PUBCHEM_MMFF94_PARTIAL_CHARGES>
15
1 -0.68
10 -0.14
11 -0.15
12 -0.15
13 -0.15
14 -0.15
15 -0.14
16 0.14
3 0.14
31 0.4
32 0.15
33 0.15
34 0.15
35 0.15
4 0.28

> <PUBCHEM_EFFECTIVE_ROTOR_COUNT>
2

> <PUBCHEM_PHARMACOPHORE_FEATURES>
5
1 1 acceptor
1 1 donor
3 2 7 8 hydrophobe
5 2 3 4 5 6 rings
6 10 11 12 13 14 15 rings

> <PUBCHEM_HEAVY_ATOM_COUNT>
16

> <PUBCHEM_ATOM_DEF_STEREO_COUNT>
2

> <PUBCHEM_ATOM_UDEF_STEREO_COUNT>
0

> <PUBCHEM_BOND_DEF_STEREO_COUNT>
0

> <PUBCHEM_BOND_UDEF_STEREO_COUNT>
0

> <PUBCHEM_ISOTOPIC_ATOM_COUNT>
0

> <PUBCHEM_COMPONENT_COUNT>
1

> <PUBCHEM_CACTVS_TAUTO_COUNT>
1

> <PUBCHEM_CONFORMER_ID>
0051278B00000002

> <PUBCHEM_MMFF94_ENERGY>
70.3435

> <PUBCHEM_FEATURE_SELFOVERLAP>
25.371

> <PUBCHEM_SHAPE_FINGERPRINT>
10863032 1 17895187775561811195
10922049 32 18041839498672360957
12423570 1 14657934632401004139
13024252 1 13479137891171491617
13296908 3 18410292545019808080
13299463 15 18114454643214397492
14115302 16 18411136952306126757
14289901 80 15985095315565853554
14817 1 11552275786770204017
15309172 13 18272661142289627754
15775835 57 17967531238111709350
15906896 17 17987244335168792169
16945 1 17988657297408892016
17844478 74 17822864206820425979
200 152 18341327863973648198
20361792 2 17560510815311498125
21524375 3 17411069335287082913
22344851 262 17167864157892116941
22802520 49 17822005445220835941
2306618 200 17967813829896110896
23402539 116 17988917830410280853
23419403 2 13914889884272049969
23557571 272 14418723370902147512
23559900 14 18201995539490528128
25 1 17822562790268257737
2748010 2 18267856375207506744
4175511 318 18186518774176706510
465052 167 17913218830398312895
528886 8 18410002213345837968
74978 22 18343017817772486416
90525 40 18201162052961189350

> <PUBCHEM_SHAPE_MULTIPOLES>
323.4
5.67
1.8
1.37
5.84
0.01
0.17
0.36
0.84
-0.64
-0.14
-1.03
-0.08
0.03

> <PUBCHEM_SHAPE_SELFOVERLAP>
680.305

> <PUBCHEM_SHAPE_VOLUME>
185

> <PUBCHEM_COORDINATE_TYPE>
2
5
10

$$$$
