5326436
  -OEChem-12071808493D

 47 46  0     1  0  0  0  0  0999 V2000
    7.2025   -0.6503   -0.4479 O   0  0  0  0  0  0  0  0  0  0  0  0
    6.1077   -0.4744    1.5390 O   0  0  0  0  0  0  0  0  0  0  0  0
    0.0700    1.4976   -0.6803 C   0  0  0  0  0  0  0  0  0  0  0  0
   -1.1998    1.7509    0.1366 C   0  0  0  0  0  0  0  0  0  0  0  0
    1.2629    1.0543    0.1727 C   0  0  0  0  0  0  0  0  0  0  0  0
   -2.3969    2.1797   -0.7227 C   0  0  0  0  0  0  0  0  0  0  0  0
    2.5236    0.7770   -0.6493 C   0  0  0  0  0  0  0  0  0  0  0  0
   -3.6693    2.5248    0.0580 C   0  0  0  0  0  0  0  0  0  0  0  0
    3.6831    0.3263    0.2454 C   0  0  0  0  0  0  0  0  0  0  0  0
    4.9663    0.0721   -0.5458 C   0  0  0  0  0  0  0  0  0  0  0  0
   -4.2161    1.3638    0.8266 C   0  5  3  0  0  0  0  0  0  0  0  0
   -5.0925    0.3530    0.1625 C   0  0  0  0  0  0  0  0  0  0  0  0
   -4.9236   -1.0005    0.7731 C   0  5  3  0  0  0  0  0  0  0  0  0
   -4.5572   -2.1839   -0.0618 C   0  0  0  0  0  0  0  0  0  0  0  0
    6.1221   -0.3624    0.3224 C   0  0  0  0  0  0  0  0  0  0  0  0
   -3.1266   -2.5763    0.1136 C   0  5  3  0  0  0  0  0  0  0  0  0
   -2.0660   -2.0611   -0.8044 C   0  0  0  0  0  0  0  0  0  0  0  0
   -0.6903   -2.5906   -0.4378 C   0  0  0  0  0  0  0  0  0  0  0  0
    0.3375    2.4119   -1.2243 H   0  0  0  0  0  0  0  0  0  0  0  0
   -0.1360    0.7293   -1.4357 H   0  0  0  0  0  0  0  0  0  0  0  0
   -0.9956    2.5331    0.8782 H   0  0  0  0  0  0  0  0  0  0  0  0
   -1.4513    0.8440    0.6985 H   0  0  0  0  0  0  0  0  0  0  0  0
    0.9881    0.1491    0.7284 H   0  0  0  0  0  0  0  0  0  0  0  0
    1.4782    1.8302    0.9177 H   0  0  0  0  0  0  0  0  0  0  0  0
   -2.1089    3.0645   -1.3047 H   0  0  0  0  0  0  0  0  0  0  0  0
   -2.6168    1.3911   -1.4532 H   0  0  0  0  0  0  0  0  0  0  0  0
    2.3130    0.0012   -1.3952 H   0  0  0  0  0  0  0  0  0  0  0  0
    2.8107    1.6833   -1.1957 H   0  0  0  0  0  0  0  0  0  0  0  0
   -4.4344    2.8979   -0.6327 H   0  0  0  0  0  0  0  0  0  0  0  0
   -3.4561    3.3418    0.7574 H   0  0  0  0  0  0  0  0  0  0  0  0
    3.8737    1.0902    1.0098 H   0  0  0  0  0  0  0  0  0  0  0  0
    3.3988   -0.5872    0.7828 H   0  0  0  0  0  0  0  0  0  0  0  0
    4.7841   -0.7141   -1.2874 H   0  0  0  0  0  0  0  0  0  0  0  0
    5.2634    0.9884   -1.0683 H   0  0  0  0  0  0  0  0  0  0  0  0
   -4.1056    1.3613    1.9070 H   0  0  0  0  0  0  0  0  0  0  0  0
   -6.1379    0.6613    0.2696 H   0  0  0  0  0  0  0  0  0  0  0  0
   -4.8731    0.3158   -0.9098 H   0  0  0  0  0  0  0  0  0  0  0  0
   -5.1034   -1.1379    1.8354 H   0  0  0  0  0  0  0  0  0  0  0  0
   -5.1891   -3.0283    0.2366 H   0  0  0  0  0  0  0  0  0  0  0  0
   -4.7742   -2.0007   -1.1197 H   0  0  0  0  0  0  0  0  0  0  0  0
   -2.8492   -3.1350    1.0029 H   0  0  0  0  0  0  0  0  0  0  0  0
   -2.3021   -2.3588   -1.8319 H   0  0  0  0  0  0  0  0  0  0  0  0
   -2.0543   -0.9691   -0.7710 H   0  0  0  0  0  0  0  0  0  0  0  0
   -0.6593   -3.6842   -0.4878 H   0  0  0  0  0  0  0  0  0  0  0  0
    0.0622   -2.1987   -1.1298 H   0  0  0  0  0  0  0  0  0  0  0  0
   -0.4060   -2.2865    0.5754 H   0  0  0  0  0  0  0  0  0  0  0  0
    7.9663   -0.9490    0.0905 H   0  0  0  0  0  0  0  0  0  0  0  0
  1 15  1  0  0  0  0
  1 47  1  0  0  0  0
  2 15  2  0  0  0  0
  3  4  1  0  0  0  0
  3  5  1  0  0  0  0
  3 19  1  0  0  0  0
  3 20  1  0  0  0  0
  4  6  1  0  0  0  0
  4 21  1  0  0  0  0
  4 22  1  0  0  0  0
  5  7  1  0  0  0  0
  5 23  1  0  0  0  0
  5 24  1  0  0  0  0
  6  8  1  0  0  0  0
  6 25  1  0  0  0  0
  6 26  1  0  0  0  0
  7  9  1  0  0  0  0
  7 27  1  0  0  0  0
  7 28  1  0  0  0  0
  8 11  1  0  0  0  0
  8 29  1  0  0  0  0
  8 30  1  0  0  0  0
  9 10  1  0  0  0  0
  9 31  1  0  0  0  0
  9 32  1  0  0  0  0
 10 15  1  0  0  0  0
 10 33  1  0  0  0  0
 10 34  1  0  0  0  0
 11 12  1  0  0  0  0
 11 35  1  0  0  0  0
 12 13  1  0  0  0  0
 12 36  1  0  0  0  0
 12 37  1  0  0  0  0
 13 14  1  0  0  0  0
 13 38  1  0  0  0  0
 14 16  1  0  0  0  0
 14 39  1  0  0  0  0
 14 40  1  0  0  0  0
 16 17  1  0  0  0  0
 16 41  1  0  0  0  0
 17 18  1  0  0  0  0
 17 42  1  0  0  0  0
 17 43  1  0  0  0  0
 18 44  1  0  0  0  0
 18 45  1  0  0  0  0
 18 46  1  0  0  0  0
M  CHG  3  11  -1  13  -1  16  -1
M  END
> <PUBCHEM_COMPOUND_CID>
5326436

> <PUBCHEM_CONFORMER_RMSD>
1.2

> <PUBCHEM_CONFORMER_DIVERSEORDER>
1
57
27
48
34
107
61
4
36
68
87
11
51
16
99
55
71
59
42
91
6
79
80
20
74
8
67
86
14
69
18
2
70
77
21
113
7
76
46
101
88
3
65
44
35
52
26
39
112
22
109
33
93
40
110
45
118
117
92
29
13
12
104
56
60
32
41
85
90
78
81
89
62
49
98
83
84
9
96
105
103
5
116
17
66
63
114
100
50
19
82
115
75
10
54
111
25
23
37
24
97
95
108
47
64
43
15
94
31
38
72
73
53
58
102
30
28
106

> <PUBCHEM_EFFECTIVE_ROTOR_COUNT>
14

> <PUBCHEM_PHARMACOPHORE_FEATURES>
4
1 1 acceptor
1 18 hydrophobe
1 2 acceptor
3 1 2 15 anion

> <PUBCHEM_HEAVY_ATOM_COUNT>
18

> <PUBCHEM_ATOM_DEF_STEREO_COUNT>
0

> <PUBCHEM_ATOM_UDEF_STEREO_COUNT>
0

> <PUBCHEM_BOND_DEF_STEREO_COUNT>
0

> <PUBCHEM_BOND_UDEF_STEREO_COUNT>
0

> <PUBCHEM_ISOTOPIC_ATOM_COUNT>
0

> <PUBCHEM_COMPONENT_COUNT>
1

> <PUBCHEM_CACTVS_TAUTO_COUNT>
1

> <PUBCHEM_CONFORMER_ID>
0051466400000001

> <PUBCHEM_MMFF94_ENERGY>
4.2651

> <PUBCHEM_FEATURE_SELFOVERLAP>
20.354

> <PUBCHEM_SHAPE_FINGERPRINT>
10291535 26 9943804504421628237
11524674 6 17918270931175494551
12838862 33 18339631262557582797
14251751 18 18412545439908021552
14251751 93 18408040689308263961
14647877 51 18055080860712301174
15042514 8 18410012130478455260
16719943 64 18409167722702169451
21236236 1 18412544318610093422
23402539 116 16877946001153600348
23559900 14 18268423702244987849
338550 245 18334020475731577158
397830 11 18129649916160955192
484985 159 18335127722822430183
5104073 3 18342164597393183960
559249 180 18333448725231806505
57307002 103 17988362676503191848
57583515 115 18411984680693538381
6138700 20 18410009979760058463
6437827 68 18411702054291481198

> <PUBCHEM_SHAPE_MULTIPOLES>
358.69
16.13
3.14
0.94
28.36
0.86
-0.12
4.03
-3.48
-5.21
0.43
0.4
0.02
-0.36

> <PUBCHEM_SHAPE_SELFOVERLAP>
656.659

> <PUBCHEM_SHAPE_VOLUME>
227.3

> <PUBCHEM_COORDINATE_TYPE>
2
5
10

$$$$
