6325327
  -OEChem-12071808373D

 78 82  0     1  0  0  0  0  0999 V2000
    2.6168   -2.4282    0.8482 O   0  0  0  0  0  0  0  0  0  0  0  0
   -8.2793    0.5659   -0.7925 O   0  0  0  0  0  0  0  0  0  0  0  0
    5.4405    0.5206    0.8586 N   0  0  2  0  0  0  0  0  0  0  0  0
    0.3469    0.0807    0.5510 C   0  0  1  0  0  0  0  0  0  0  0  0
   -0.4681   -0.9883   -0.2056 C   0  0  2  0  0  0  0  0  0  0  0  0
   -1.9560   -0.9845    0.1587 C   0  0  1  0  0  0  0  0  0  0  0  0
    1.7687   -0.2373    0.0089 C   0  0  2  0  0  0  0  0  0  0  0  0
   -2.5611    0.4173   -0.1444 C   0  0  1  0  0  0  0  0  0  0  0  0
   -0.2010    1.4541    0.1309 C   0  0  0  0  0  0  0  0  0  0  0  0
    0.3374   -2.2648    0.0067 C   0  0  0  0  0  0  0  0  0  0  0  0
    1.7980   -1.7880   -0.1156 C   0  0  2  0  0  0  0  0  0  0  0  0
   -4.0908    0.4854    0.2506 C   0  0  2  0  0  0  0  0  0  0  0  0
   -1.7052    1.5796    0.4299 C   0  0  0  0  0  0  0  0  0  0  0  0
    2.9353    0.3774    0.7708 C   0  0  1  0  0  0  0  0  0  0  0  0
   -2.7113   -2.0668   -0.6275 C   0  0  0  0  0  0  0  0  0  0  0  0
    0.2855   -0.0519    2.0923 C   0  0  0  0  0  0  0  0  0  0  0  0
   -4.8317   -0.7748   -0.2180 C   0  0  0  0  0  0  0  0  0  0  0  0
   -4.7182    1.7330   -0.4400 C   0  0  0  0  0  0  0  0  0  0  0  0
    4.2709    0.0101    0.1081 C   0  0  1  0  0  0  0  0  0  0  0  0
   -4.1959   -1.8905   -0.6160 C   0  0  0  0  0  0  0  0  0  0  0  0
   -4.2719    0.6032    1.7833 C   0  0  0  0  0  0  0  0  0  0  0  0
   -6.3421   -0.7239   -0.2272 C   0  0  0  0  0  0  0  0  0  0  0  0
   -6.2441    1.7867   -0.3787 C   0  0  0  0  0  0  0  0  0  0  0  0
    2.7834    1.8955    0.8596 C   0  0  0  0  0  0  0  0  0  0  0  0
   -6.8646    0.5148   -0.9477 C   0  0  2  0  0  0  0  0  0  0  0  0
    4.2671    0.5781   -1.3247 C   0  0  0  0  0  0  0  0  0  0  0  0
    5.5654    0.2727   -2.0615 C   0  0  0  0  0  0  0  0  0  0  0  0
    6.7027    0.1758    0.1780 C   0  0  0  0  0  0  0  0  0  0  0  0
    6.7634    0.7543   -1.2430 C   0  0  1  0  0  0  0  0  0  0  0  0
    5.4856    0.0209    2.2360 C   0  0  0  0  0  0  0  0  0  0  0  0
    8.0740    0.3729   -1.9290 C   0  0  0  0  0  0  0  0  0  0  0  0
   -0.4107   -0.7664   -1.2850 H   0  0  0  0  0  0  0  0  0  0  0  0
   -2.0708   -1.2119    1.2243 H   0  0  0  0  0  0  0  0  0  0  0  0
    1.7490    0.1544   -1.0153 H   0  0  0  0  0  0  0  0  0  0  0  0
   -2.5092    0.5343   -1.2394 H   0  0  0  0  0  0  0  0  0  0  0  0
   -0.0445    1.6160   -0.9433 H   0  0  0  0  0  0  0  0  0  0  0  0
    0.2870    2.2821    0.6461 H   0  0  0  0  0  0  0  0  0  0  0  0
    0.1391   -2.7165    0.9853 H   0  0  0  0  0  0  0  0  0  0  0  0
    0.1089   -3.0200   -0.7528 H   0  0  0  0  0  0  0  0  0  0  0  0
    2.1951   -2.0537   -1.1028 H   0  0  0  0  0  0  0  0  0  0  0  0
   -1.8333    1.6510    1.5139 H   0  0  0  0  0  0  0  0  0  0  0  0
   -2.0539    2.5331    0.0172 H   0  0  0  0  0  0  0  0  0  0  0  0
    2.9235   -0.0229    1.7896 H   0  0  0  0  0  0  0  0  0  0  0  0
   -2.4710   -3.0495   -0.2040 H   0  0  0  0  0  0  0  0  0  0  0  0
   -2.3832   -2.0844   -1.6742 H   0  0  0  0  0  0  0  0  0  0  0  0
    0.7551   -0.9764    2.4438 H   0  0  0  0  0  0  0  0  0  0  0  0
    0.7881    0.7765    2.5982 H   0  0  0  0  0  0  0  0  0  0  0  0
   -0.7392   -0.0604    2.4733 H   0  0  0  0  0  0  0  0  0  0  0  0
   -4.4240    1.7534   -1.4983 H   0  0  0  0  0  0  0  0  0  0  0  0
   -4.3257    2.6543    0.0066 H   0  0  0  0  0  0  0  0  0  0  0  0
    4.3781   -1.0775    0.0333 H   0  0  0  0  0  0  0  0  0  0  0  0
   -4.7753   -2.7449   -0.9575 H   0  0  0  0  0  0  0  0  0  0  0  0
   -3.7513   -0.1984    2.3171 H   0  0  0  0  0  0  0  0  0  0  0  0
   -3.8965    1.5590    2.1628 H   0  0  0  0  0  0  0  0  0  0  0  0
   -5.3238    0.5504    2.0836 H   0  0  0  0  0  0  0  0  0  0  0  0
   -6.7741   -1.6155   -0.7004 H   0  0  0  0  0  0  0  0  0  0  0  0
   -6.7174   -0.7437    0.8037 H   0  0  0  0  0  0  0  0  0  0  0  0
    2.4393    2.3447   -0.0772 H   0  0  0  0  0  0  0  0  0  0  0  0
    2.0975    2.1838    1.6590 H   0  0  0  0  0  0  0  0  0  0  0  0
    3.7248    2.3901    1.1223 H   0  0  0  0  0  0  0  0  0  0  0  0
   -6.5852    1.9462    0.6515 H   0  0  0  0  0  0  0  0  0  0  0  0
   -6.6060    2.6559   -0.9418 H   0  0  0  0  0  0  0  0  0  0  0  0
   -6.6485    0.4386   -2.0205 H   0  0  0  0  0  0  0  0  0  0  0  0
    2.5370   -3.3872    0.7090 H   0  0  0  0  0  0  0  0  0  0  0  0
    4.1308    1.6654   -1.3310 H   0  0  0  0  0  0  0  0  0  0  0  0
    3.4745    0.1452   -1.9395 H   0  0  0  0  0  0  0  0  0  0  0  0
    5.6382   -0.8080   -2.2392 H   0  0  0  0  0  0  0  0  0  0  0  0
    5.5567    0.7583   -3.0445 H   0  0  0  0  0  0  0  0  0  0  0  0
    6.8368   -0.9143    0.1477 H   0  0  0  0  0  0  0  0  0  0  0  0
    7.5461    0.5879    0.7470 H   0  0  0  0  0  0  0  0  0  0  0  0
    6.7240    1.8502   -1.1766 H   0  0  0  0  0  0  0  0  0  0  0  0
    5.4275   -1.0724    2.2805 H   0  0  0  0  0  0  0  0  0  0  0  0
    4.6833    0.4460    2.8463 H   0  0  0  0  0  0  0  0  0  0  0  0
    6.4143    0.3308    2.7302 H   0  0  0  0  0  0  0  0  0  0  0  0
   -8.5968    1.3574   -1.2597 H   0  0  0  0  0  0  0  0  0  0  0  0
    8.1261    0.8054   -2.9337 H   0  0  0  0  0  0  0  0  0  0  0  0
    8.9324    0.7442   -1.3595 H   0  0  0  0  0  0  0  0  0  0  0  0
    8.1741   -0.7138   -2.0224 H   0  0  0  0  0  0  0  0  0  0  0  0
  1 11  1  0  0  0  0
  1 64  1  0  0  0  0
  2 25  1  0  0  0  0
  2 75  1  0  0  0  0
  3 19  1  0  0  0  0
  3 28  1  0  0  0  0
  3 30  1  0  0  0  0
  4  5  1  0  0  0  0
  4  7  1  0  0  0  0
  4  9  1  0  0  0  0
  4 16  1  0  0  0  0
  5  6  1  0  0  0  0
  5 10  1  0  0  0  0
  5 32  1  0  0  0  0
  6  8  1  0  0  0  0
  6 15  1  0  0  0  0
  6 33  1  0  0  0  0
  7 11  1  0  0  0  0
  7 14  1  0  0  0  0
  7 34  1  0  0  0  0
  8 12  1  0  0  0  0
  8 13  1  0  0  0  0
  8 35  1  0  0  0  0
  9 13  1  0  0  0  0
  9 36  1  0  0  0  0
  9 37  1  0  0  0  0
 10 11  1  0  0  0  0
 10 38  1  0  0  0  0
 10 39  1  0  0  0  0
 11 40  1  0  0  0  0
 12 17  1  0  0  0  0
 12 18  1  0  0  0  0
 12 21  1  0  0  0  0
 13 41  1  0  0  0  0
 13 42  1  0  0  0  0
 14 19  1  0  0  0  0
 14 24  1  0  0  0  0
 14 43  1  0  0  0  0
 15 20  1  0  0  0  0
 15 44  1  0  0  0  0
 15 45  1  0  0  0  0
 16 46  1  0  0  0  0
 16 47  1  0  0  0  0
 16 48  1  0  0  0  0
 17 20  2  0  0  0  0
 17 22  1  0  0  0  0
 18 23  1  0  0  0  0
 18 49  1  0  0  0  0
 18 50  1  0  0  0  0
 19 26  1  0  0  0  0
 19 51  1  0  0  0  0
 20 52  1  0  0  0  0
 21 53  1  0  0  0  0
 21 54  1  0  0  0  0
 21 55  1  0  0  0  0
 22 25  1  0  0  0  0
 22 56  1  0  0  0  0
 22 57  1  0  0  0  0
 23 25  1  0  0  0  0
 23 61  1  0  0  0  0
 23 62  1  0  0  0  0
 24 58  1  0  0  0  0
 24 59  1  0  0  0  0
 24 60  1  0  0  0  0
 25 63  1  0  0  0  0
 26 27  1  0  0  0  0
 26 65  1  0  0  0  0
 26 66  1  0  0  0  0
 27 29  1  0  0  0  0
 27 67  1  0  0  0  0
 27 68  1  0  0  0  0
 28 29  1  0  0  0  0
 28 69  1  0  0  0  0
 28 70  1  0  0  0  0
 29 31  1  0  0  0  0
 29 71  1  0  0  0  0
 30 72  1  0  0  0  0
 30 73  1  0  0  0  0
 30 74  1  0  0  0  0
 31 76  1  0  0  0  0
 31 77  1  0  0  0  0
 31 78  1  0  0  0  0
M  END
> <PUBCHEM_COMPOUND_CID>
6325327

> <PUBCHEM_CONFORMER_RMSD>
0.8

> <PUBCHEM_CONFORMER_DIVERSEORDER>
1
7
6
8
2
5
3
4

> <PUBCHEM_MMFF94_PARTIAL_CHARGES>
16
1 -0.68
11 0.28
12 0.14
15 0.14
17 -0.28
19 0.27
2 -0.68
20 -0.29
22 0.14
25 0.28
28 0.27
3 -0.81
30 0.27
52 0.15
64 0.4
75 0.4

> <PUBCHEM_EFFECTIVE_ROTOR_COUNT>
5.2

> <PUBCHEM_PHARMACOPHORE_FEATURES>
11
1 1 acceptor
1 1 donor
1 2 acceptor
1 2 donor
1 24 hydrophobe
1 3 cation
5 4 5 7 10 11 rings
6 12 17 18 22 23 25 rings
6 3 19 26 27 28 29 rings
6 4 5 6 8 9 13 rings
6 6 8 12 15 17 20 rings

> <PUBCHEM_HEAVY_ATOM_COUNT>
31

> <PUBCHEM_ATOM_DEF_STEREO_COUNT>
8

> <PUBCHEM_ATOM_UDEF_STEREO_COUNT>
3

> <PUBCHEM_BOND_DEF_STEREO_COUNT>
0

> <PUBCHEM_BOND_UDEF_STEREO_COUNT>
0

> <PUBCHEM_ISOTOPIC_ATOM_COUNT>
0

> <PUBCHEM_COMPONENT_COUNT>
1

> <PUBCHEM_CACTVS_TAUTO_COUNT>
1

> <PUBCHEM_CONFORMER_ID>
0060844F00000001

> <PUBCHEM_MMFF94_ENERGY>
101.1501

> <PUBCHEM_FEATURE_SELFOVERLAP>
55.917

> <PUBCHEM_SHAPE_FINGERPRINT>
10 15 17675928694674155729
10554248 39 18042668551218657086
10670039 82 17988651756859226777
10906281 52 18114473287604249587
10940486 97 18265892643699427847
11315181 36 17917433159403047729
11578080 2 17678162798863892581
11607047 74 15623090028800078649
11719270 70 18409441458411427034
12011746 2 18059852870636874541
12236239 1 17821725039717245442
12838862 33 18269814503012535297
13540713 5 17982740670620683080
13685833 64 14333408947503003853
13782708 43 17274819224314238550
13811026 1 17775283876985781560
14294032 229 18263648363762268941
14849402 71 16081379595252959892
14856354 85 18114467863678174855
14931854 50 17917988344293039481
15131766 46 16661784356379976836
15183329 4 18271812315339419988
15198563 99 17274553026594956728
1577012 14 17894628175682913278
15961568 22 17748829587886622477
18335252 98 18186527614290689555
18608769 82 18340484578233736315
18681886 176 18342170115629424545
19841028 212 13613977547816841716
20105231 36 18059583520406432975
2026 5 15697174928762933148
21267235 1 18271812375743502587
21792961 116 18202010914482099446
22122407 14 16733564774651417556
22393880 68 18201995572943151791
23081809 10 17821722849463266160
23559900 14 17703504492873739360
23569914 152 16193691121717346292
23569943 247 17129602141479193078
23576562 1 18190467253713667532
249057 3 18343020025438619133
3004659 81 18411139169168907084
335352 9 18341610438351314549
34797466 226 16773791519506389857
350125 39 18410848858816396377
3545911 37 18343015601964786299
4073 2 17822296777670315731
4093350 32 15357970144979431784
4325135 7 18187364324377759493
445580 37 18413112744768500221
5104073 3 18338234861146588707
5486654 2 18411419514030758919
59755656 215 18202284688967148238
59755656 520 17312816100424644411

> <PUBCHEM_SHAPE_MULTIPOLES>
621.25
20.42
1.96
1.58
3.23
0.67
-0.23
-5.35
8.69
-1.55
-0.03
2.56
-0.23
-0.25

> <PUBCHEM_SHAPE_SELFOVERLAP>
1311.234

> <PUBCHEM_SHAPE_VOLUME>
346.4

> <PUBCHEM_COORDINATE_TYPE>
2
5
10

$$$$
