70699355
  -OEChem-12071808543D

 99103  0     1  0  0  0  0  0999 V2000
    5.4417   -0.1255   -0.7183 O   0  0  0  0  0  0  0  0  0  0  0  0
    6.7967    0.3119    1.1776 O   0  0  0  0  0  0  0  0  0  0  0  0
    7.8398   -2.3890    0.7997 O   0  0  0  0  0  0  0  0  0  0  0  0
    9.4580   -1.6108   -1.3723 O   0  0  0  0  0  0  0  0  0  0  0  0
    9.6526   -0.2818    1.0636 O   0  0  0  0  0  0  0  0  0  0  0  0
    7.0522    2.9239    1.9632 O   0  0  0  0  0  0  0  0  0  0  0  0
   -3.2591    0.6208   -0.3272 C   0  0  1  0  0  0  0  0  0  0  0  0
   -2.4438   -0.3778    0.5182 C   0  0  2  0  0  0  0  0  0  0  0  0
   -1.0803   -0.7168   -0.0923 C   0  0  1  0  0  0  0  0  0  0  0  0
   -0.2535    0.5893   -0.2754 C   0  0  1  0  0  0  0  0  0  0  0  0
   -4.5478    0.6764    0.5291 C   0  0  2  0  0  0  0  0  0  0  0  0
   -2.4661    1.9341   -0.3814 C   0  0  0  0  0  0  0  0  0  0  0  0
    1.1511    0.2963   -0.9402 C   0  0  2  0  0  0  0  0  0  0  0  0
   -3.4290   -1.5102    0.7912 C   0  0  0  0  0  0  0  0  0  0  0  0
   -1.0613    1.7195   -0.9708 C   0  0  0  0  0  0  0  0  0  0  0  0
   -4.7886   -0.7995    0.9247 C   0  0  0  0  0  0  0  0  0  0  0  0
   -0.3155   -1.7055    0.8003 C   0  0  0  0  0  0  0  0  0  0  0  0
   -3.5639    0.1290   -1.7640 C   0  0  0  0  0  0  0  0  0  0  0  0
    1.8107   -0.9345   -0.3027 C   0  0  0  0  0  0  0  0  0  0  0  0
   -5.7657    1.3232   -0.1151 C   0  0  2  0  0  0  0  0  0  0  0  0
    2.0653    1.5380   -0.7166 C   0  0  0  0  0  0  0  0  0  0  0  0
    1.1412   -1.8005    0.4777 C   0  0  0  0  0  0  0  0  0  0  0  0
    1.0108    0.0306   -2.4585 C   0  0  0  0  0  0  0  0  0  0  0  0
    3.2810   -1.1492   -0.5780 C   0  0  0  0  0  0  0  0  0  0  0  0
    3.5362    1.3080   -1.0607 C   0  0  0  0  0  0  0  0  0  0  0  0
    4.0994    0.1087   -0.3049 C   0  0  2  0  0  0  0  0  0  0  0  0
   -5.6734    2.8491   -0.0447 C   0  0  0  0  0  0  0  0  0  0  0  0
   -7.0312    0.8532    0.5602 C   0  0  0  0  0  0  0  0  0  0  0  0
   -8.0126    0.1900   -0.0711 C   0  0  0  0  0  0  0  0  0  0  0  0
    6.2189   -0.6906    0.3328 C   0  0  2  0  0  0  0  0  0  0  0  0
   -9.2805   -0.2849    0.6089 C   0  0  2  0  0  0  0  0  0  0  0  0
    7.2951   -1.6032   -0.2591 C   0  0  1  0  0  0  0  0  0  0  0  0
   -9.4364   -1.8341    0.5799 C   0  0  0  0  0  0  0  0  0  0  0  0
  -10.4759    0.4749   -0.0078 C   0  0  0  0  0  0  0  0  0  0  0  0
    8.3924   -0.7755   -0.9358 C   0  0  1  0  0  0  0  0  0  0  0  0
    7.7595    1.1516    0.5259 C   0  0  2  0  0  0  0  0  0  0  0  0
    8.9319    0.3186   -0.0117 C   0  0  1  0  0  0  0  0  0  0  0  0
   -8.3135   -2.5921    1.2954 C   0  0  0  0  0  0  0  0  0  0  0  0
   -9.5791   -2.3611   -0.8548 C   0  0  0  0  0  0  0  0  0  0  0  0
  -10.3532    1.9899    0.0777 C   0  0  0  0  0  0  0  0  0  0  0  0
    8.1960    2.2055    1.5372 C   0  0  0  0  0  0  0  0  0  0  0  0
   -2.2397    0.0888    1.4971 H   0  0  0  0  0  0  0  0  0  0  0  0
   -1.2271   -1.1976   -1.0658 H   0  0  0  0  0  0  0  0  0  0  0  0
   -0.0531    0.9614    0.7428 H   0  0  0  0  0  0  0  0  0  0  0  0
   -4.3217    1.2114    1.4650 H   0  0  0  0  0  0  0  0  0  0  0  0
   -2.3680    2.3644    0.6232 H   0  0  0  0  0  0  0  0  0  0  0  0
   -2.9720    2.6810   -0.9982 H   0  0  0  0  0  0  0  0  0  0  0  0
   -3.1772   -2.0609    1.7033 H   0  0  0  0  0  0  0  0  0  0  0  0
   -3.4517   -2.2297   -0.0351 H   0  0  0  0  0  0  0  0  0  0  0  0
   -1.1678    1.5121   -2.0396 H   0  0  0  0  0  0  0  0  0  0  0  0
   -0.5141    2.6659   -0.8949 H   0  0  0  0  0  0  0  0  0  0  0  0
   -5.1716   -0.8787    1.9482 H   0  0  0  0  0  0  0  0  0  0  0  0
   -5.4941   -1.3031    0.2565 H   0  0  0  0  0  0  0  0  0  0  0  0
   -0.7640   -2.7011    0.6973 H   0  0  0  0  0  0  0  0  0  0  0  0
   -0.4082   -1.4245    1.8568 H   0  0  0  0  0  0  0  0  0  0  0  0
   -4.2353   -0.7354   -1.7791 H   0  0  0  0  0  0  0  0  0  0  0  0
   -2.6621   -0.1656   -2.3074 H   0  0  0  0  0  0  0  0  0  0  0  0
   -4.0312    0.9214   -2.3594 H   0  0  0  0  0  0  0  0  0  0  0  0
   -5.8436    1.0506   -1.1723 H   0  0  0  0  0  0  0  0  0  0  0  0
    2.0111    1.8490    0.3357 H   0  0  0  0  0  0  0  0  0  0  0  0
    1.7052    2.3885   -1.3076 H   0  0  0  0  0  0  0  0  0  0  0  0
    1.6681   -2.6430    0.9193 H   0  0  0  0  0  0  0  0  0  0  0  0
    0.6854    0.9262   -2.9976 H   0  0  0  0  0  0  0  0  0  0  0  0
    0.2909   -0.7675   -2.6668 H   0  0  0  0  0  0  0  0  0  0  0  0
    1.9579   -0.2715   -2.9180 H   0  0  0  0  0  0  0  0  0  0  0  0
    3.6750   -1.9843    0.0142 H   0  0  0  0  0  0  0  0  0  0  0  0
    3.4169   -1.4616   -1.6213 H   0  0  0  0  0  0  0  0  0  0  0  0
    3.6642    1.1683   -2.1411 H   0  0  0  0  0  0  0  0  0  0  0  0
    4.1206    2.2029   -0.8129 H   0  0  0  0  0  0  0  0  0  0  0  0
    4.0686    0.3521    0.7671 H   0  0  0  0  0  0  0  0  0  0  0  0
   -5.4146    3.1993    0.9606 H   0  0  0  0  0  0  0  0  0  0  0  0
   -6.6326    3.3084   -0.3134 H   0  0  0  0  0  0  0  0  0  0  0  0
   -4.9401    3.2437   -0.7492 H   0  0  0  0  0  0  0  0  0  0  0  0
   -7.1346    1.0717    1.6209 H   0  0  0  0  0  0  0  0  0  0  0  0
   -7.9099   -0.0131   -1.1341 H   0  0  0  0  0  0  0  0  0  0  0  0
    5.5891   -1.3034    0.9894 H   0  0  0  0  0  0  0  0  0  0  0  0
   -9.2370    0.0019    1.6697 H   0  0  0  0  0  0  0  0  0  0  0  0
    6.8671   -2.2980   -0.9910 H   0  0  0  0  0  0  0  0  0  0  0  0
  -10.3692   -2.0731    1.1088 H   0  0  0  0  0  0  0  0  0  0  0  0
  -11.3933    0.1676    0.5091 H   0  0  0  0  0  0  0  0  0  0  0  0
  -10.6058    0.2127   -1.0639 H   0  0  0  0  0  0  0  0  0  0  0  0
    7.9671   -0.3029   -1.8303 H   0  0  0  0  0  0  0  0  0  0  0  0
    7.2498    1.6613   -0.3021 H   0  0  0  0  0  0  0  0  0  0  0  0
    9.6400    0.9587   -0.5502 H   0  0  0  0  0  0  0  0  0  0  0  0
   -7.3691   -2.5255    0.7495 H   0  0  0  0  0  0  0  0  0  0  0  0
   -8.5662   -3.6540    1.3878 H   0  0  0  0  0  0  0  0  0  0  0  0
   -8.1589   -2.1967    2.3045 H   0  0  0  0  0  0  0  0  0  0  0  0
   -8.6900   -2.1628   -1.4608 H   0  0  0  0  0  0  0  0  0  0  0  0
  -10.4497   -1.9377   -1.3626 H   0  0  0  0  0  0  0  0  0  0  0  0
   -9.7236   -3.4478   -0.8418 H   0  0  0  0  0  0  0  0  0  0  0  0
  -11.2835    2.4579   -0.2610 H   0  0  0  0  0  0  0  0  0  0  0  0
   -9.5478    2.3732   -0.5559 H   0  0  0  0  0  0  0  0  0  0  0  0
  -10.1715    2.3127    1.1078 H   0  0  0  0  0  0  0  0  0  0  0  0
    7.1235   -2.9427    1.1546 H   0  0  0  0  0  0  0  0  0  0  0  0
    8.9118    2.9043    1.0935 H   0  0  0  0  0  0  0  0  0  0  0  0
    8.6418    1.7437    2.4240 H   0  0  0  0  0  0  0  0  0  0  0  0
   10.1176   -1.0431   -1.8062 H   0  0  0  0  0  0  0  0  0  0  0  0
   10.3564   -0.8276    0.6731 H   0  0  0  0  0  0  0  0  0  0  0  0
    7.3539    3.5904    2.6037 H   0  0  0  0  0  0  0  0  0  0  0  0
  1 26  1  0  0  0  0
  1 30  1  0  0  0  0
  2 30  1  0  0  0  0
  2 36  1  0  0  0  0
  3 32  1  0  0  0  0
  3 94  1  0  0  0  0
  4 35  1  0  0  0  0
  4 97  1  0  0  0  0
  5 37  1  0  0  0  0
  5 98  1  0  0  0  0
  6 41  1  0  0  0  0
  6 99  1  0  0  0  0
  7  8  1  0  0  0  0
  7 11  1  0  0  0  0
  7 12  1  0  0  0  0
  7 18  1  0  0  0  0
  8  9  1  0  0  0  0
  8 14  1  0  0  0  0
  8 42  1  0  0  0  0
  9 10  1  0  0  0  0
  9 17  1  0  0  0  0
  9 43  1  0  0  0  0
 10 13  1  0  0  0  0
 10 15  1  0  0  0  0
 10 44  1  0  0  0  0
 11 16  1  0  0  0  0
 11 20  1  0  0  0  0
 11 45  1  0  0  0  0
 12 15  1  0  0  0  0
 12 46  1  0  0  0  0
 12 47  1  0  0  0  0
 13 19  1  0  0  0  0
 13 21  1  0  0  0  0
 13 23  1  0  0  0  0
 14 16  1  0  0  0  0
 14 48  1  0  0  0  0
 14 49  1  0  0  0  0
 15 50  1  0  0  0  0
 15 51  1  0  0  0  0
 16 52  1  0  0  0  0
 16 53  1  0  0  0  0
 17 22  1  0  0  0  0
 17 54  1  0  0  0  0
 17 55  1  0  0  0  0
 18 56  1  0  0  0  0
 18 57  1  0  0  0  0
 18 58  1  0  0  0  0
 19 22  2  0  0  0  0
 19 24  1  0  0  0  0
 20 27  1  0  0  0  0
 20 28  1  0  0  0  0
 20 59  1  0  0  0  0
 21 25  1  0  0  0  0
 21 60  1  0  0  0  0
 21 61  1  0  0  0  0
 22 62  1  0  0  0  0
 23 63  1  0  0  0  0
 23 64  1  0  0  0  0
 23 65  1  0  0  0  0
 24 26  1  0  0  0  0
 24 66  1  0  0  0  0
 24 67  1  0  0  0  0
 25 26  1  0  0  0  0
 25 68  1  0  0  0  0
 25 69  1  0  0  0  0
 26 70  1  0  0  0  0
 27 71  1  0  0  0  0
 27 72  1  0  0  0  0
 27 73  1  0  0  0  0
 28 29  2  0  0  0  0
 28 74  1  0  0  0  0
 29 31  1  0  0  0  0
 29 75  1  0  0  0  0
 30 32  1  0  0  0  0
 30 76  1  0  0  0  0
 31 33  1  0  0  0  0
 31 34  1  0  0  0  0
 31 77  1  0  0  0  0
 32 35  1  0  0  0  0
 32 78  1  0  0  0  0
 33 38  1  0  0  0  0
 33 39  1  0  0  0  0
 33 79  1  0  0  0  0
 34 40  1  0  0  0  0
 34 80  1  0  0  0  0
 34 81  1  0  0  0  0
 35 37  1  0  0  0  0
 35 82  1  0  0  0  0
 36 37  1  0  0  0  0
 36 41  1  0  0  0  0
 36 83  1  0  0  0  0
 37 84  1  0  0  0  0
 38 85  1  0  0  0  0
 38 86  1  0  0  0  0
 38 87  1  0  0  0  0
 39 88  1  0  0  0  0
 39 89  1  0  0  0  0
 39 90  1  0  0  0  0
 40 91  1  0  0  0  0
 40 92  1  0  0  0  0
 40 93  1  0  0  0  0
 41 95  1  0  0  0  0
 41 96  1  0  0  0  0
M  END
> <PUBCHEM_COMPOUND_CID>
70699355

> <PUBCHEM_CONFORMER_RMSD>
1.2

> <PUBCHEM_CONFORMER_DIVERSEORDER>
1
46
25
24
40
17
22
26
38
32
5
18
35
8
30
34
16
39
44
20
47
6
21
13
3
48
7
29
33
36
11
41
9
14
45
12
23
15
42
37
19
28
43
10
27
4
31
2

> <PUBCHEM_MMFF94_PARTIAL_CHARGES>
29
1 -0.56
13 0.14
17 0.14
19 -0.28
2 -0.56
20 0.14
22 -0.29
24 0.14
26 0.28
28 -0.29
29 -0.29
3 -0.68
30 0.56
31 0.14
32 0.28
35 0.28
36 0.28
37 0.28
4 -0.68
41 0.28
5 -0.68
6 -0.68
62 0.15
74 0.15
75 0.15
94 0.4
97 0.4
98 0.4
99 0.4

> <PUBCHEM_EFFECTIVE_ROTOR_COUNT>
11.2

> <PUBCHEM_PHARMACOPHORE_FEATURES>
19
1 1 acceptor
1 2 acceptor
1 27 hydrophobe
1 3 acceptor
1 3 donor
1 4 acceptor
1 4 donor
1 40 hydrophobe
1 5 acceptor
1 5 donor
1 6 acceptor
1 6 donor
3 33 38 39 hydrophobe
4 29 31 33 34 hydrophobe
5 7 8 11 14 16 rings
6 13 19 21 24 25 26 rings
6 2 30 32 35 36 37 rings
6 7 8 9 10 12 15 rings
6 9 10 13 17 19 22 rings

> <PUBCHEM_HEAVY_ATOM_COUNT>
41

> <PUBCHEM_ATOM_DEF_STEREO_COUNT>
11

> <PUBCHEM_ATOM_UDEF_STEREO_COUNT>
3

> <PUBCHEM_BOND_DEF_STEREO_COUNT>
1

> <PUBCHEM_BOND_UDEF_STEREO_COUNT>
0

> <PUBCHEM_ISOTOPIC_ATOM_COUNT>
0

> <PUBCHEM_COMPONENT_COUNT>
1

> <PUBCHEM_CACTVS_TAUTO_COUNT>
1

> <PUBCHEM_CONFORMER_ID>
0436C95B00000001

> <PUBCHEM_MMFF94_ENERGY>
122.4763

> <PUBCHEM_FEATURE_SELFOVERLAP>
96.865

> <PUBCHEM_SHAPE_FINGERPRINT>
10076449 9 16732700550258926935
10580692 12 18334860520169749756
12013929 2 18340209601357596830
12522641 33 17917433103067995598
12664476 115 18040716965402823637
12758862 56 17240768423534897825
12838862 33 18113609093767627557
13383668 251 18114738347495737741
13740195 50 18272931644188983883
13811026 1 18334017215713995923
13947947 19 17894638070923625543
14251764 46 17385445406043359581
15065858 18 18413669115359109467
15131766 46 17487037120182906800
15247644 1 15502095241587246336
15347591 1 17679317509543322127
15392192 104 18202003227129131878
15461852 350 18409452488330139031
15510794 2 18271812306565285095
15840311 113 18187650236683908860
16728433 110 18272651260524720481
17686467 74 18411980269978981481
19315958 150 17418098701969699134
20105231 36 18340211800455082678
21130935 74 18337672988454699418
21792934 111 18334575750225402244
232437 2 18407762521087385447
23569917 315 18041008353839897683
24771293 8 18334300821459020789
2851757 15 18413389843194440385
3092352 35 16343703218538821742
335352 9 18041005041839122838
3383291 50 17822295729698263378
3525247 94 18413387648672523503
437795 160 18335980961004023075
6081469 158 16298104289460019959
6126387 218 18410295809812131753
6691757 9 16950293892927260281
67123 10 18342176661407366803
9663363 56 14201398301182631988
9962374 69 17458066005526405813

> <PUBCHEM_SHAPE_MULTIPOLES>
808.54
38.93
2.56
1.37
3.72
0.19
0.22
-4.73
-8.22
1.72
-0.61
-1.54
0.18
2.28

> <PUBCHEM_SHAPE_SELFOVERLAP>
1681.326

> <PUBCHEM_SHAPE_VOLUME>
456.8

> <PUBCHEM_COORDINATE_TYPE>
2
5
10

$$$$
