44259215
  -OEChem-12071808483D

 49 52  0     1  0  0  0  0  0999 V2000
    1.0367   -2.8161   -0.0257 O   0  0  0  0  0  0  0  0  0  0  0  0
    0.7188   -0.7648    1.0687 O   0  0  0  0  0  0  0  0  0  0  0  0
    3.6461   -1.3910   -2.0265 O   0  0  0  0  0  0  0  0  0  0  0  0
    3.2339   -1.8210    1.5708 O   0  0  0  0  0  0  0  0  0  0  0  0
    3.5503   -4.3127    0.1140 O   0  0  0  0  0  0  0  0  0  0  0  0
   -1.7939    1.5572   -0.3036 O   0  0  0  0  0  0  0  0  0  0  0  0
   -1.6435   -2.2266    1.2009 O   0  0  0  0  0  0  0  0  0  0  0  0
   -4.2191   -2.4818    0.8327 O   0  0  0  0  0  0  0  0  0  0  0  0
   -6.4760    1.2598   -1.0256 O   0  0  0  0  0  0  0  0  0  0  0  0
    3.0666    3.5293    2.0663 O   0  0  0  0  0  0  0  0  0  0  0  0
    3.7827    4.4751   -0.4477 O   0  0  0  0  0  0  0  0  0  0  0  0
    3.7191   -2.0854   -0.7831 C   0  0  1  0  0  0  0  0  0  0  0  0
    2.9189   -1.3147    0.2732 C   0  0  1  0  0  0  0  0  0  0  0  0
    3.1708   -3.5003   -0.9949 C   0  0  2  0  0  0  0  0  0  0  0  0
    1.4125   -1.4398    0.0236 C   0  0  1  0  0  0  0  0  0  0  0  0
    1.6470   -3.5049   -1.1199 C   0  0  0  0  0  0  0  0  0  0  0  0
   -0.4794   -0.2454    0.6287 C   0  0  0  0  0  0  0  0  0  0  0  0
   -0.5998    0.9932    0.1170 C   0  0  0  0  0  0  0  0  0  0  0  0
   -1.6913   -1.0918    0.7452 C   0  0  0  0  0  0  0  0  0  0  0  0
   -2.9532   -0.4925    0.2851 C   0  0  0  0  0  0  0  0  0  0  0  0
   -2.9379    0.8066   -0.2171 C   0  0  0  0  0  0  0  0  0  0  0  0
    0.5488    1.9051   -0.0279 C   0  0  0  0  0  0  0  0  0  0  0  0
   -4.1504   -1.2098    0.3503 C   0  0  0  0  0  0  0  0  0  0  0  0
   -4.1220    1.3981   -0.6586 C   0  0  0  0  0  0  0  0  0  0  0  0
    1.2763    2.2938    1.0970 C   0  0  0  0  0  0  0  0  0  0  0  0
    0.9084    2.3796   -1.2893 C   0  0  0  0  0  0  0  0  0  0  0  0
   -5.3333   -0.6162   -0.0918 C   0  0  0  0  0  0  0  0  0  0  0  0
   -5.3194    0.6851   -0.5955 C   0  0  0  0  0  0  0  0  0  0  0  0
    2.3635    3.1570    0.9604 C   0  0  0  0  0  0  0  0  0  0  0  0
    1.9955    3.2429   -1.4257 C   0  0  0  0  0  0  0  0  0  0  0  0
    2.7231    3.6316   -0.3010 C   0  0  0  0  0  0  0  0  0  0  0  0
    4.7720   -2.1351   -0.4807 H   0  0  0  0  0  0  0  0  0  0  0  0
    3.1932   -0.2533    0.2671 H   0  0  0  0  0  0  0  0  0  0  0  0
    3.6068   -3.9486   -1.8950 H   0  0  0  0  0  0  0  0  0  0  0  0
    1.1818   -0.9804   -0.9491 H   0  0  0  0  0  0  0  0  0  0  0  0
    1.3227   -3.0450   -2.0604 H   0  0  0  0  0  0  0  0  0  0  0  0
    1.2664   -4.5313   -1.0998 H   0  0  0  0  0  0  0  0  0  0  0  0
    4.2015   -1.8706   -2.6645 H   0  0  0  0  0  0  0  0  0  0  0  0
    4.1884   -1.6975    1.7094 H   0  0  0  0  0  0  0  0  0  0  0  0
    3.2168   -5.2110   -0.0518 H   0  0  0  0  0  0  0  0  0  0  0  0
   -4.1135    2.4118   -1.0511 H   0  0  0  0  0  0  0  0  0  0  0  0
    0.9965    1.9334    2.0847 H   0  0  0  0  0  0  0  0  0  0  0  0
    0.3536    2.0837   -2.1764 H   0  0  0  0  0  0  0  0  0  0  0  0
   -6.2659   -1.1734   -0.0418 H   0  0  0  0  0  0  0  0  0  0  0  0
    2.2653    3.6044   -2.4145 H   0  0  0  0  0  0  0  0  0  0  0  0
   -3.3414   -2.7911    1.1039 H   0  0  0  0  0  0  0  0  0  0  0  0
   -7.2051    0.6266   -0.9096 H   0  0  0  0  0  0  0  0  0  0  0  0
    2.6765    3.1034    2.8488 H   0  0  0  0  0  0  0  0  0  0  0  0
    3.8820    4.6982   -1.3893 H   0  0  0  0  0  0  0  0  0  0  0  0
  1 15  1  0  0  0  0
  1 16  1  0  0  0  0
  2 15  1  0  0  0  0
  2 17  1  0  0  0  0
  3 12  1  0  0  0  0
  3 38  1  0  0  0  0
  4 13  1  0  0  0  0
  4 39  1  0  0  0  0
  5 14  1  0  0  0  0
  5 40  1  0  0  0  0
  6 18  1  0  0  0  0
  6 21  1  0  0  0  0
  7 19  2  0  0  0  0
  8 23  1  0  0  0  0
  8 46  1  0  0  0  0
  9 28  1  0  0  0  0
  9 47  1  0  0  0  0
 10 29  1  0  0  0  0
 10 48  1  0  0  0  0
 11 31  1  0  0  0  0
 11 49  1  0  0  0  0
 12 13  1  0  0  0  0
 12 14  1  0  0  0  0
 12 32  1  0  0  0  0
 13 15  1  0  0  0  0
 13 33  1  0  0  0  0
 14 16  1  0  0  0  0
 14 34  1  0  0  0  0
 15 35  1  0  0  0  0
 16 36  1  0  0  0  0
 16 37  1  0  0  0  0
 17 18  2  0  0  0  0
 17 19  1  0  0  0  0
 18 22  1  0  0  0  0
 19 20  1  0  0  0  0
 20 21  1  0  0  0  0
 20 23  2  0  0  0  0
 21 24  2  0  0  0  0
 22 25  2  0  0  0  0
 22 26  1  0  0  0  0
 23 27  1  0  0  0  0
 24 28  1  0  0  0  0
 24 41  1  0  0  0  0
 25 29  1  0  0  0  0
 25 42  1  0  0  0  0
 26 30  2  0  0  0  0
 26 43  1  0  0  0  0
 27 28  2  0  0  0  0
 27 44  1  0  0  0  0
 29 31  2  0  0  0  0
 30 31  1  0  0  0  0
 30 45  1  0  0  0  0
M  END
> <PUBCHEM_COMPOUND_CID>
44259215

> <PUBCHEM_CONFORMER_RMSD>
0.8

> <PUBCHEM_CONFORMER_DIVERSEORDER>
3
80
33
83
49
63
56
64
85
75
44
81
71
6
50
82
52
79
69
20
45
32
55
54
73
76
53
16
70
51
46
47
60
18
19
77
62
72
78
35
27
74
65
84
17
30
26
15
40
41
39
66
5
38
11
25
24
37
59
14
22
68
12
61
7
4
13
29
28
67
8
23
21
58
1
31
43
34
9
36
10
57
2
42
48

> <PUBCHEM_MMFF94_PARTIAL_CHARGES>
43
1 -0.56
10 -0.53
11 -0.53
12 0.28
13 0.28
14 0.28
15 0.56
16 0.28
17 0.09
18 0.05
19 0.47
2 -0.36
20 0.09
21 0.08
22 0.03
23 0.08
24 -0.15
25 -0.15
26 -0.15
27 -0.15
28 0.08
29 0.08
3 -0.68
30 -0.15
31 0.08
38 0.4
39 0.4
4 -0.68
40 0.4
41 0.15
42 0.15
43 0.15
44 0.15
45 0.15
46 0.45
47 0.45
48 0.45
49 0.45
5 -0.68
6 -0.16
7 -0.57
8 -0.53
9 -0.53

> <PUBCHEM_EFFECTIVE_ROTOR_COUNT>
4.2

> <PUBCHEM_PHARMACOPHORE_FEATURES>
18
1 1 acceptor
1 10 donor
1 11 donor
1 2 acceptor
1 3 acceptor
1 3 donor
1 4 acceptor
1 4 donor
1 5 acceptor
1 5 donor
1 6 acceptor
1 7 acceptor
1 8 donor
1 9 donor
6 1 12 13 14 15 16 rings
6 20 21 23 24 27 28 rings
6 22 25 26 29 30 31 rings
6 6 17 18 19 20 21 rings

> <PUBCHEM_HEAVY_ATOM_COUNT>
31

> <PUBCHEM_ATOM_DEF_STEREO_COUNT>
2

> <PUBCHEM_ATOM_UDEF_STEREO_COUNT>
2

> <PUBCHEM_BOND_DEF_STEREO_COUNT>
0

> <PUBCHEM_BOND_UDEF_STEREO_COUNT>
0

> <PUBCHEM_ISOTOPIC_ATOM_COUNT>
0

> <PUBCHEM_COMPONENT_COUNT>
1

> <PUBCHEM_CACTVS_TAUTO_COUNT>
162

> <PUBCHEM_CONFORMER_ID>
02A3578F00000003

> <PUBCHEM_MMFF94_ENERGY>
98.7057

> <PUBCHEM_FEATURE_SELFOVERLAP>
91.447

> <PUBCHEM_SHAPE_FINGERPRINT>
10190108 129 17476369769607012347
1100329 8 17981050717476959777
11045515 52 18047761398968195100
11963148 33 17613430464950668611
12160290 23 17181104223663777696
12422481 6 18191281961986533528
12741549 16 17557681613089964672
12788726 201 17541383440499513146
131258 43 17845111592696554502
13140716 1 18334294263069996153
13149001 5 18187655669500773443
133893 2 18265921153175451752
13533116 47 18343582954476379529
13540713 4 18186806907339279939
138480 1 18338520742231963724
140371 6 18341619152966565283
14508225 48 18123473778294264398
15230672 131 18048882086004078732
15439362 3 18409728482433091005
15475509 8 17981895134069656301
15664445 248 18337107857000646802
15775530 1 17898308318347454387
15927050 60 18126287686364040206
17492 54 18188793707538978908
17909252 39 18411429414088586473
1813 80 17987521394554748991
20028762 73 17190392318286407207
20600515 1 18049141303430808240
20691752 17 16877932867696892881
20775438 99 18266720550312459551
21120745 212 17769114349606828060
22033318 11 14876982603437634474
22182313 1 18115315604449237827
23557571 272 17907569238690136162
23559900 14 18408602561188081157
24771750 20 18117015457266855685
3004659 81 17897731959401171790
3298306 158 18196096761911511700
3411729 13 18262790886557867104
38695281 34 18196372735224825212
4017518 198 18196940096764138700
4280585 95 18263638459720008778
46194498 28 18409162230198133663
495365 180 18270675484424733273
5081480 168 18262509304544337893
5265222 85 17759815032426052204
532947 4 18340779246753452748
5385378 56 18268440186281458161
57124632 79 18268431411452034960
59755656 215 18335136539757519604
6443956 14 18341049631739677968
6669772 16 18055928825264664660
6679774 75 18117543228229800162
9709674 26 18408321108060935291
9981440 41 18048314732727243961

> <PUBCHEM_SHAPE_MULTIPOLES>
573.4
9.9
5.8
1.37
14.55
1.03
-0.03
-1.02
2
-9.82
0.46
-1.03
0.31
1.85

> <PUBCHEM_SHAPE_SELFOVERLAP>
1269.681

> <PUBCHEM_SHAPE_VOLUME>
303.4

> <PUBCHEM_COORDINATE_TYPE>
2
5
10

$$$$
