11972379
  -OEChem-12071808493D

 51 53  0     1  0  0  0  0  0999 V2000
   -2.7857   -0.8139   -0.1522 O   0  0  0  0  0  0  0  0  0  0  0  0
   -1.6583    0.9977   -1.0962 O   0  0  0  0  0  0  0  0  0  0  0  0
   -6.4008    1.1112   -0.4558 O   0  0  0  0  0  0  0  0  0  0  0  0
   -6.1318   -1.1752    1.2923 O   0  0  0  0  0  0  0  0  0  0  0  0
   -3.8883    2.6480   -0.5382 O   0  0  0  0  0  0  0  0  0  0  0  0
   -2.4031   -3.1740    1.2042 O   0  0  0  0  0  0  0  0  0  0  0  0
    3.4048   -0.9883   -0.1225 O   0  0  0  0  0  0  0  0  0  0  0  0
   -0.8500   -1.4109   -2.1723 O   0  0  0  0  0  0  0  0  0  0  0  0
    2.4478    2.5878    1.5790 O   0  0  0  0  0  0  0  0  0  0  0  0
    6.3176    0.2658   -1.1371 O   0  0  0  0  0  0  0  0  0  0  0  0
   -5.1779    0.7398    0.1825 C   0  0  1  0  0  0  0  0  0  0  0  0
   -5.1621   -0.7822    0.3247 C   0  0  1  0  0  0  0  0  0  0  0  0
   -3.9970    1.2296   -0.6559 C   0  0  2  0  0  0  0  0  0  0  0  0
   -3.7805   -1.2721    0.7651 C   0  0  1  0  0  0  0  0  0  0  0  0
   -2.6833    0.6078   -0.1826 C   0  0  1  0  0  0  0  0  0  0  0  0
   -3.7066   -2.7953    0.8010 C   0  0  0  0  0  0  0  0  0  0  0  0
   -0.3991    0.5286   -0.8402 C   0  0  0  0  0  0  0  0  0  0  0  0
    0.4746    1.2615   -0.0387 C   0  0  0  0  0  0  0  0  0  0  0  0
    1.7559    0.7647    0.2113 C   0  0  0  0  0  0  0  0  0  0  0  0
    0.0000   -0.6895   -1.3886 C   0  0  0  0  0  0  0  0  0  0  0  0
    2.1593   -0.4529   -0.3350 C   0  0  0  0  0  0  0  0  0  0  0  0
    1.2807   -1.1821   -1.1367 C   0  0  0  0  0  0  0  0  0  0  0  0
   -0.0138    2.5610    0.5204 C   0  0  0  0  0  0  0  0  0  0  0  0
    2.7020    1.5128    1.0538 C   0  0  0  0  0  0  0  0  0  0  0  0
    4.2973   -0.2855    0.6710 C   0  0  0  0  0  0  0  0  0  0  0  0
    4.0266    0.8928    1.2511 C   0  0  0  0  0  0  0  0  0  0  0  0
    5.6193   -0.9679    0.8303 C   0  0  0  0  0  0  0  0  0  0  0  0
    6.5921   -0.5455   -0.2539 C   0  0  0  0  0  0  0  0  0  0  0  0
    7.9605   -1.1735   -0.1805 C   0  0  0  0  0  0  0  0  0  0  0  0
   -5.1814    1.2268    1.1655 H   0  0  0  0  0  0  0  0  0  0  0  0
   -5.4472   -1.2404   -0.6303 H   0  0  0  0  0  0  0  0  0  0  0  0
   -4.1680    1.0117   -1.7168 H   0  0  0  0  0  0  0  0  0  0  0  0
   -3.5298   -0.8969    1.7667 H   0  0  0  0  0  0  0  0  0  0  0  0
   -2.4213    0.9778    0.8179 H   0  0  0  0  0  0  0  0  0  0  0  0
   -3.8891   -3.2288   -0.1880 H   0  0  0  0  0  0  0  0  0  0  0  0
   -4.4234   -3.2193    1.5099 H   0  0  0  0  0  0  0  0  0  0  0  0
   -7.1296    0.7746    0.0933 H   0  0  0  0  0  0  0  0  0  0  0  0
   -5.8829   -0.7792    2.1449 H   0  0  0  0  0  0  0  0  0  0  0  0
   -3.7322    2.8618    0.3975 H   0  0  0  0  0  0  0  0  0  0  0  0
   -1.7749   -2.7879    0.5700 H   0  0  0  0  0  0  0  0  0  0  0  0
    1.5984   -2.1315   -1.5608 H   0  0  0  0  0  0  0  0  0  0  0  0
   -1.0047    2.8554    0.1640 H   0  0  0  0  0  0  0  0  0  0  0  0
    0.6455    3.3812    0.2170 H   0  0  0  0  0  0  0  0  0  0  0  0
   -0.0767    2.5089    1.6123 H   0  0  0  0  0  0  0  0  0  0  0  0
    4.7500    1.4163    1.8654 H   0  0  0  0  0  0  0  0  0  0  0  0
    5.4926   -2.0554    0.7872 H   0  0  0  0  0  0  0  0  0  0  0  0
    6.0649   -0.7213    1.8011 H   0  0  0  0  0  0  0  0  0  0  0  0
   -0.4035   -2.2263   -2.4580 H   0  0  0  0  0  0  0  0  0  0  0  0
    8.5731   -0.8219   -1.0155 H   0  0  0  0  0  0  0  0  0  0  0  0
    7.8690   -2.2605   -0.2452 H   0  0  0  0  0  0  0  0  0  0  0  0
    8.4441   -0.8900    0.7575 H   0  0  0  0  0  0  0  0  0  0  0  0
  1 14  1  0  0  0  0
  1 15  1  0  0  0  0
  2 15  1  0  0  0  0
  2 17  1  0  0  0  0
  3 11  1  0  0  0  0
  3 37  1  0  0  0  0
  4 12  1  0  0  0  0
  4 38  1  0  0  0  0
  5 13  1  0  0  0  0
  5 39  1  0  0  0  0
  6 16  1  0  0  0  0
  6 40  1  0  0  0  0
  7 21  1  0  0  0  0
  7 25  1  0  0  0  0
  8 20  1  0  0  0  0
  8 48  1  0  0  0  0
  9 24  2  0  0  0  0
 10 28  2  0  0  0  0
 11 12  1  0  0  0  0
 11 13  1  0  0  0  0
 11 30  1  0  0  0  0
 12 14  1  0  0  0  0
 12 31  1  0  0  0  0
 13 15  1  0  0  0  0
 13 32  1  0  0  0  0
 14 16  1  0  0  0  0
 14 33  1  0  0  0  0
 15 34  1  0  0  0  0
 16 35  1  0  0  0  0
 16 36  1  0  0  0  0
 17 18  2  0  0  0  0
 17 20  1  0  0  0  0
 18 19  1  0  0  0  0
 18 23  1  0  0  0  0
 19 21  2  0  0  0  0
 19 24  1  0  0  0  0
 20 22  2  0  0  0  0
 21 22  1  0  0  0  0
 22 41  1  0  0  0  0
 23 42  1  0  0  0  0
 23 43  1  0  0  0  0
 23 44  1  0  0  0  0
 24 26  1  0  0  0  0
 25 26  2  0  0  0  0
 25 27  1  0  0  0  0
 26 45  1  0  0  0  0
 27 28  1  0  0  0  0
 27 46  1  0  0  0  0
 27 47  1  0  0  0  0
 28 29  1  0  0  0  0
 29 49  1  0  0  0  0
 29 50  1  0  0  0  0
 29 51  1  0  0  0  0
M  END
> <PUBCHEM_COMPOUND_CID>
11972379

> <PUBCHEM_CONFORMER_RMSD>
0.8

> <PUBCHEM_CONFORMER_DIVERSEORDER>
1
13
234
83
143
162
215
146
150
222
11
237
235
243
200
19
191
100
106
45
80
137
216
231
133
241
157
240
149
250
5
156
227
186
158
224
246
198
18
59
81
233
202
196
226
165
109
251
94
127
217
249
201
176
38
132
84
25
65
63
218
134
126
205
119
181
197
184
116
124
247
97
9
107
153
68
91
166
147
169
210
225
60
42
229
159
75
61
40
245
4
108
221
136
141
188
248
131
113
105
20
49
125
95
99
51
22
122
152
36
110
138
16
3
192
64
72
115
238
44
214
118
102
187
50
185
206
62
92
182
220
103
213
129
39
219
74
77
31
98
37
26
6
193
168
195
151
35
24
29
179
228
164
101
236
194
27
148
189
54
111
183
190
23
117
208
135
73
67
70
86
203
90
120
175
12
34
170
123
46
160
96
15
112
212
10
53
14
144
244
121
82
223
171
56
230
8
66
57
2
104
89
242
130
41
30
21
17
239
52
140
78
55
7
167
139
209
204
79
155
128
87
69
232
163
211
173
142
154
43
58
174
207
71
85
28
161
199
93
48
180
145
88
114
76
177
33
47
178
32
172

> <PUBCHEM_MMFF94_PARTIAL_CHARGES>
36
1 -0.56
10 -0.57
11 0.28
12 0.28
13 0.28
14 0.28
15 0.56
16 0.28
17 0.08
18 -0.14
19 0.09
2 -0.36
20 0.08
21 0.08
22 -0.15
23 0.14
24 0.47
25 -0.06
26 -0.14
27 0.2
28 0.45
29 0.06
3 -0.68
37 0.4
38 0.4
39 0.4
4 -0.68
40 0.4
41 0.15
45 0.15
48 0.45
5 -0.68
6 -0.68
7 -0.16
8 -0.53
9 -0.57

> <PUBCHEM_EFFECTIVE_ROTOR_COUNT>
6.2

> <PUBCHEM_PHARMACOPHORE_FEATURES>
17
1 1 acceptor
1 10 acceptor
1 2 acceptor
1 3 acceptor
1 3 donor
1 4 acceptor
1 4 donor
1 5 acceptor
1 5 donor
1 6 acceptor
1 6 donor
1 7 acceptor
1 8 donor
1 9 acceptor
6 1 11 12 13 14 15 rings
6 17 18 19 20 21 22 rings
6 7 19 21 24 25 26 rings

> <PUBCHEM_HEAVY_ATOM_COUNT>
29

> <PUBCHEM_ATOM_DEF_STEREO_COUNT>
5

> <PUBCHEM_ATOM_UDEF_STEREO_COUNT>
0

> <PUBCHEM_BOND_DEF_STEREO_COUNT>
0

> <PUBCHEM_BOND_UDEF_STEREO_COUNT>
0

> <PUBCHEM_ISOTOPIC_ATOM_COUNT>
0

> <PUBCHEM_COMPONENT_COUNT>
1

> <PUBCHEM_CACTVS_TAUTO_COUNT>
78

> <PUBCHEM_CONFORMER_ID>
00B6AF1B00000001

> <PUBCHEM_MMFF94_ENERGY>
88.4101

> <PUBCHEM_FEATURE_SELFOVERLAP>
86.37

> <PUBCHEM_SHAPE_FINGERPRINT>
10 15 18200579377051140128
10299344 5 17749109972384399962
10319926 262 18408876352178019489
10498660 4 11671794741267541387
10940486 97 17968384540829011015
11045977 3 18411978083017155809
11524674 6 18060134345013056599
11646440 116 17275101717846850016
12035758 1 17632573847590230838
12166972 35 16486680454860810169
12236239 1 16587743127000476701
12633257 1 18340218483075385987
13140716 1 17916571180936178588
13402501 40 18412262826606656755
13583140 156 18341325643496850199
13914758 101 11959738162064012918
14341114 176 18409730698409200169
14856354 85 18187653508926560390
14955137 171 18343021133788309064
15131766 46 11381817293217660706
16988056 13 11803328092964349651
1813 80 16153704323567072623
200 152 13767921304186124652
21033648 29 17631996581709225513
21133410 52 15748104761900309014
21267235 1 18202003193238111972
21304304 249 18334859476361022831
21682296 61 17345483591771232110
21792961 116 18269551651288262030
22122407 14 16773526550932900489
23516275 137 17678752120028002922
23522609 53 17605014528279037780
23559900 14 18335417997485490305
23569914 152 12978885324687133066
23569917 315 16773794831227194543
23569943 247 16055487042076843414
23622692 88 17275103938265645060
2838139 119 12895351083901810211
3178227 256 18202289108462057042
335352 9 17917985075749217476
4325135 7 17312824866726831406
465052 167 18413390934632890232
5265222 85 18041570229839822118
57527293 21 17912378807751331551
59755656 215 18410855426074820350
8863177 126 18339078302254883330

> <PUBCHEM_SHAPE_MULTIPOLES>
538.11
16.44
2.55
1.33
12.41
0.1
0.16
4.47
-1.8
-2.26
-0.83
0.07
0.21
1.94

> <PUBCHEM_SHAPE_SELFOVERLAP>
1154.919

> <PUBCHEM_SHAPE_VOLUME>
293.6

> <PUBCHEM_COORDINATE_TYPE>
2
5
10

$$$$
