5317260
  -OEChem-12071808473D

 39 40  0     0  0  0  0  0  0999 V2000
    0.5905   -0.0965    0.6135 O   0  0  0  0  0  0  0  0  0  0  0  0
   -5.5618   -0.5594   -0.3358 O   0  0  0  0  0  0  0  0  0  0  0  0
   -0.9812   -2.1579   -0.3630 O   0  0  0  0  0  0  0  0  0  0  0  0
   -0.5934    2.2901    1.3701 O   0  0  0  0  0  0  0  0  0  0  0  0
    4.9936   -2.1295    1.4900 O   0  0  0  0  0  0  0  0  0  0  0  0
    5.8924    1.5500   -1.4411 O   0  0  0  0  0  0  0  0  0  0  0  0
    6.8097   -0.4791    0.2064 O   0  0  0  0  0  0  0  0  0  0  0  0
    0.7893    0.7419   -1.5529 O   0  0  0  0  0  0  0  0  0  0  0  0
   -5.5702    1.5928    0.4809 O   0  0  0  0  0  0  0  0  0  0  0  0
   -0.7930    0.0668    0.5029 C   0  0  0  0  0  0  0  0  0  0  0  0
   -3.5208    0.3908    0.2820 C   0  0  0  0  0  0  0  0  0  0  0  0
   -1.5473   -0.9768    0.0117 C   0  0  0  0  0  0  0  0  0  0  0  0
   -1.3520    1.2665    0.8874 C   0  0  0  0  0  0  0  0  0  0  0  0
    2.7308    0.0880   -0.3330 C   0  0  0  0  0  0  0  0  0  0  0  0
   -2.9280   -0.8128   -0.1002 C   0  0  0  0  0  0  0  0  0  0  0  0
   -2.7327    1.4304    0.7757 C   0  0  0  0  0  0  0  0  0  0  0  0
    3.6426    0.9213   -0.9812 C   0  0  0  0  0  0  0  0  0  0  0  0
    3.1891   -0.9359    0.4960 C   0  0  0  0  0  0  0  0  0  0  0  0
    1.3024    0.2857   -0.5215 C   0  0  0  0  0  0  0  0  0  0  0  0
    4.5591   -1.1265    0.6768 C   0  0  0  0  0  0  0  0  0  0  0  0
    5.0125    0.7306   -0.8006 C   0  0  0  0  0  0  0  0  0  0  0  0
    5.4708   -0.2934    0.0283 C   0  0  0  0  0  0  0  0  0  0  0  0
   -4.9603    0.5622    0.1664 C   0  0  0  0  0  0  0  0  0  0  0  0
   -6.9835   -0.5134   -0.4982 C   0  0  0  0  0  0  0  0  0  0  0  0
   -7.4586   -1.8361   -1.0608 C   0  0  0  0  0  0  0  0  0  0  0  0
   -3.5147   -1.6414   -0.4881 H   0  0  0  0  0  0  0  0  0  0  0  0
   -3.1805    2.3742    1.0772 H   0  0  0  0  0  0  0  0  0  0  0  0
    3.2880    1.7222   -1.6259 H   0  0  0  0  0  0  0  0  0  0  0  0
    2.4977   -1.6060    1.0013 H   0  0  0  0  0  0  0  0  0  0  0  0
   -7.4548   -0.3322    0.4741 H   0  0  0  0  0  0  0  0  0  0  0  0
   -7.2448    0.2985   -1.1859 H   0  0  0  0  0  0  0  0  0  0  0  0
   -1.6769   -2.7591   -0.6795 H   0  0  0  0  0  0  0  0  0  0  0  0
    0.3327    1.9952    1.4078 H   0  0  0  0  0  0  0  0  0  0  0  0
   -8.5434   -1.8359   -1.1980 H   0  0  0  0  0  0  0  0  0  0  0  0
   -6.9800   -2.0388   -2.0246 H   0  0  0  0  0  0  0  0  0  0  0  0
   -7.1865   -2.6591   -0.3917 H   0  0  0  0  0  0  0  0  0  0  0  0
    5.9664   -2.1159    1.4993 H   0  0  0  0  0  0  0  0  0  0  0  0
    5.3959    2.1977   -1.9700 H   0  0  0  0  0  0  0  0  0  0  0  0
    7.2847    0.1886   -0.3182 H   0  0  0  0  0  0  0  0  0  0  0  0
  1 10  1  0  0  0  0
  1 19  1  0  0  0  0
  2 23  1  0  0  0  0
  2 24  1  0  0  0  0
  3 12  1  0  0  0  0
  3 32  1  0  0  0  0
  4 13  1  0  0  0  0
  4 33  1  0  0  0  0
  5 20  1  0  0  0  0
  5 37  1  0  0  0  0
  6 21  1  0  0  0  0
  6 38  1  0  0  0  0
  7 22  1  0  0  0  0
  7 39  1  0  0  0  0
  8 19  2  0  0  0  0
  9 23  2  0  0  0  0
 10 12  2  0  0  0  0
 10 13  1  0  0  0  0
 11 15  2  0  0  0  0
 11 16  1  0  0  0  0
 11 23  1  0  0  0  0
 12 15  1  0  0  0  0
 13 16  2  0  0  0  0
 14 17  2  0  0  0  0
 14 18  1  0  0  0  0
 14 19  1  0  0  0  0
 15 26  1  0  0  0  0
 16 27  1  0  0  0  0
 17 21  1  0  0  0  0
 17 28  1  0  0  0  0
 18 20  2  0  0  0  0
 18 29  1  0  0  0  0
 20 22  1  0  0  0  0
 21 22  2  0  0  0  0
 24 25  1  0  0  0  0
 24 30  1  0  0  0  0
 24 31  1  0  0  0  0
 25 34  1  0  0  0  0
 25 35  1  0  0  0  0
 25 36  1  0  0  0  0
M  END
> <PUBCHEM_COMPOUND_CID>
5317260

> <PUBCHEM_CONFORMER_RMSD>
0.8

> <PUBCHEM_CONFORMER_DIVERSEORDER>
1
47
50
49
73
63
40
55
17
77
71
48
36
42
51
64
23
43
19
35
44
2
52
37
53
16
78
54
57
70
3
62
61
76
33
24
25
34
66
68
5
74
18
9
80
56
30
14
21
28
15
31
27
11
26
39
79
72
65
32
12
45
4
59
6
67
22
7
58
60
75
41
29
38
46
10
69
13
8
20

> <PUBCHEM_MMFF94_PARTIAL_CHARGES>
33
1 -0.23
10 0.08
11 0.09
12 0.08
13 0.08
14 0.09
15 -0.15
16 -0.15
17 -0.15
18 -0.15
19 0.63
2 -0.43
20 0.08
21 0.08
22 0.08
23 0.63
24 0.28
26 0.15
27 0.15
28 0.15
29 0.15
3 -0.53
32 0.45
33 0.45
37 0.45
38 0.45
39 0.45
4 -0.53
5 -0.53
6 -0.53
7 -0.53
8 -0.57
9 -0.57

> <PUBCHEM_EFFECTIVE_ROTOR_COUNT>
6

> <PUBCHEM_PHARMACOPHORE_FEATURES>
9
1 3 donor
1 4 donor
1 5 donor
1 6 donor
1 7 donor
1 8 acceptor
1 9 acceptor
6 10 11 12 13 15 16 rings
6 14 17 18 20 21 22 rings

> <PUBCHEM_HEAVY_ATOM_COUNT>
25

> <PUBCHEM_ATOM_DEF_STEREO_COUNT>
0

> <PUBCHEM_ATOM_UDEF_STEREO_COUNT>
0

> <PUBCHEM_BOND_DEF_STEREO_COUNT>
0

> <PUBCHEM_BOND_UDEF_STEREO_COUNT>
0

> <PUBCHEM_ISOTOPIC_ATOM_COUNT>
0

> <PUBCHEM_COMPONENT_COUNT>
1

> <PUBCHEM_CACTVS_TAUTO_COUNT>
70

> <PUBCHEM_CONFORMER_ID>
0051228C00000001

> <PUBCHEM_MMFF94_ENERGY>
73.4613

> <PUBCHEM_FEATURE_SELFOVERLAP>
45.682

> <PUBCHEM_SHAPE_FINGERPRINT>
10595046 47 18408042892220603720
11963148 33 17917703617726296487
12107183 9 17614562536961885536
12166972 35 18335420192609612565
12236239 1 18334013869607340241
12516196 113 17704354372422931968
12788726 201 18130516236233001456
13533116 47 18335138657629590186
13862211 1 18272366486696394315
13914758 101 17603579682805218629
1420 363 15698284412629568293
14251764 18 18407760343559903094
15183329 4 17822007601383985423
1577012 14 18335988592823459981
200 152 18408040693181355073
20157964 124 17748829626757059340
20511986 3 18334848437972838044
21150785 3 18333730251858751783
21267235 1 18130789014865995799
22079108 93 13830126196012944278
2215653 11 16153427224993146922
22956985 138 17557438578482977854
23081809 10 18408888417084213841
23402539 116 18131067117470563373
23522609 53 18197807486120050401
23536379 177 17967814929534228729
23557571 272 17060071310517569792
23559900 14 18201999967095603032
23569917 315 18412550890011595510
2838139 119 17095241415563724365
29717793 49 18340775862609237518
3004659 81 18409169887961129346
3178227 256 18270974535378154451
34797466 226 16988566840207149408
3633792 109 17967810518391708709
397830 11 15338254896730049383
4073 2 17096095795716137402
4340502 62 14045742638265223085

> <PUBCHEM_SHAPE_MULTIPOLES>
461.66
18.07
1.82
1.14
8.05
0.09
-0.09
4.7
-3.55
0.69
0.32
-0.79
-0.14
-2.64

> <PUBCHEM_SHAPE_SELFOVERLAP>
1000.175

> <PUBCHEM_SHAPE_VOLUME>
250.3

> <PUBCHEM_COORDINATE_TYPE>
2
5
10

$$$$
