44543716
  -OEChem-12071808363D

 96 99  0     1  0  0  0  0  0999 V2000
    6.0877   -0.3590    1.4480 O   0  0  0  0  0  0  0  0  0  0  0  0
   -3.7981   -4.8217    1.3653 O   0  0  0  0  0  0  0  0  0  0  0  0
    2.9264    2.5591    1.5781 O   0  0  0  0  0  0  0  0  0  0  0  0
    2.8448   -2.2480    1.9490 O   0  0  0  0  0  0  0  0  0  0  0  0
   -0.2301    0.7934    2.3336 O   0  0  0  0  0  0  0  0  0  0  0  0
   -7.3359    2.7225    1.1615 O   0  0  0  0  0  0  0  0  0  0  0  0
    5.0721    1.3545    0.2752 N   0  0  0  0  0  0  0  0  0  0  0  0
    3.0569   -1.0335   -0.0159 N   0  0  0  0  0  0  0  0  0  0  0  0
   -3.0433   -3.9425    0.6195 N   0  0  1  0  0  0  0  0  0  0  0  0
    1.5633    2.1781   -0.2566 N   0  0  0  0  0  0  0  0  0  0  0  0
    0.4903   -0.1988    0.3603 N   0  0  0  0  0  0  0  0  0  0  0  0
    3.9614    1.9081   -0.5282 C   0  0  2  0  0  0  0  0  0  0  0  0
    4.3681    3.1077   -1.3915 C   0  0  0  0  0  0  0  0  0  0  0  0
    5.9392    2.3360    0.9509 C   0  0  0  0  0  0  0  0  0  0  0  0
    4.5025   -1.1087   -0.1380 C   0  0  2  0  0  0  0  0  0  0  0  0
    5.1781    4.1404   -0.6186 C   0  0  0  0  0  0  0  0  0  0  0  0
    6.3767    3.4725    0.0368 C   0  0  0  0  0  0  0  0  0  0  0  0
   -2.2036   -1.8074    0.0496 C   0  0  1  0  0  0  0  0  0  0  0  0
    5.2501    0.0044    0.6083 C   0  0  0  0  0  0  0  0  0  0  0  0
   -3.5143   -2.5682    0.4988 C   0  0  1  0  0  0  0  0  0  0  0  0
    4.9598   -1.2348   -1.5875 C   0  0  2  0  0  0  0  0  0  0  0  0
   -1.1316   -2.8864    0.1413 C   0  0  0  0  0  0  0  0  0  0  0  0
    0.8190   -1.5152    0.8781 C   0  0  1  0  0  0  0  0  0  0  0  0
    0.3188   -2.6064   -0.0553 C   0  0  0  0  0  0  0  0  0  0  0  0
    2.7900    2.2579    0.3946 C   0  0  0  0  0  0  0  0  0  0  0  0
    0.3027    2.2277    0.4749 C   0  0  1  0  0  0  0  0  0  0  0  0
   -1.6908   -4.0545    0.4807 C   0  0  0  0  0  0  0  0  0  0  0  0
    2.3409   -1.5983    1.0323 C   0  0  0  0  0  0  0  0  0  0  0  0
    4.2164   -2.3502   -2.3461 C   0  0  0  0  0  0  0  0  0  0  0  0
   -2.2802   -1.1798   -1.3179 C   0  0  0  0  0  0  0  0  0  0  0  0
   -0.8729    2.4897   -0.4506 C   0  0  0  0  0  0  0  0  0  0  0  0
   -4.6613   -2.5113   -0.4693 C   0  0  0  0  0  0  0  0  0  0  0  0
    6.4687   -1.4942   -1.6375 C   0  0  0  0  0  0  0  0  0  0  0  0
    0.1740    0.8778    1.1754 C   0  0  0  0  0  0  0  0  0  0  0  0
   -2.1937    2.5351    0.3184 C   0  0  0  0  0  0  0  0  0  0  0  0
   -3.3813   -1.2194   -2.0803 C   0  0  0  0  0  0  0  0  0  0  0  0
   -4.5849   -1.8806   -1.6486 C   0  0  0  0  0  0  0  0  0  0  0  0
    4.4049   -3.7309   -1.7339 C   0  0  0  0  0  0  0  0  0  0  0  0
   -3.3787    2.7662   -0.6214 C   0  0  0  0  0  0  0  0  0  0  0  0
   -4.7043    2.7652    0.1462 C   0  0  0  0  0  0  0  0  0  0  0  0
   -3.9976   -5.9713    0.5504 C   0  0  0  0  0  0  0  0  0  0  0  0
   -5.9096    2.9600   -0.7724 C   0  0  0  0  0  0  0  0  0  0  0  0
   -7.2495    2.8915   -0.0537 C   0  0  0  0  0  0  0  0  0  0  0  0
   -8.4759    3.0094   -0.9436 C   0  0  0  0  0  0  0  0  0  0  0  0
   -9.7753    2.9642   -0.1602 C   0  0  0  0  0  0  0  0  0  0  0  0
    3.6038    1.1426   -1.2149 H   0  0  0  0  0  0  0  0  0  0  0  0
    3.4867    3.5898   -1.8299 H   0  0  0  0  0  0  0  0  0  0  0  0
    4.9789    2.7443   -2.2285 H   0  0  0  0  0  0  0  0  0  0  0  0
    6.8339    1.8443    1.3478 H   0  0  0  0  0  0  0  0  0  0  0  0
    5.3926    2.7293    1.8145 H   0  0  0  0  0  0  0  0  0  0  0  0
    4.7915   -2.0273    0.3916 H   0  0  0  0  0  0  0  0  0  0  0  0
    5.5183    4.9289   -1.2991 H   0  0  0  0  0  0  0  0  0  0  0  0
    4.5520    4.6203    0.1427 H   0  0  0  0  0  0  0  0  0  0  0  0
    7.0449    3.0801   -0.7399 H   0  0  0  0  0  0  0  0  0  0  0  0
    6.9474    4.2109    0.6107 H   0  0  0  0  0  0  0  0  0  0  0  0
   -2.0159   -1.0205    0.7880 H   0  0  0  0  0  0  0  0  0  0  0  0
   -3.8354   -2.1899    1.4778 H   0  0  0  0  0  0  0  0  0  0  0  0
    4.7764   -0.3071   -2.1394 H   0  0  0  0  0  0  0  0  0  0  0  0
    0.3941   -1.6181    1.8846 H   0  0  0  0  0  0  0  0  0  0  0  0
    0.8859   -3.5299    0.1233 H   0  0  0  0  0  0  0  0  0  0  0  0
    0.5022   -2.3435   -1.1049 H   0  0  0  0  0  0  0  0  0  0  0  0
    0.3836    3.0072    1.2415 H   0  0  0  0  0  0  0  0  0  0  0  0
    2.5439   -0.5543   -0.7472 H   0  0  0  0  0  0  0  0  0  0  0  0
   -1.1969   -4.9938    0.6749 H   0  0  0  0  0  0  0  0  0  0  0  0
    3.1452   -2.1247   -2.4044 H   0  0  0  0  0  0  0  0  0  0  0  0
    4.5727   -2.3776   -3.3837 H   0  0  0  0  0  0  0  0  0  0  0  0
    1.5378    1.9490   -1.2462 H   0  0  0  0  0  0  0  0  0  0  0  0
    0.6835   -0.0145   -0.6195 H   0  0  0  0  0  0  0  0  0  0  0  0
   -1.4063   -0.6611   -1.7002 H   0  0  0  0  0  0  0  0  0  0  0  0
   -0.7200    3.4432   -0.9722 H   0  0  0  0  0  0  0  0  0  0  0  0
   -0.9290    1.7206   -1.2304 H   0  0  0  0  0  0  0  0  0  0  0  0
   -5.5930   -2.9939   -0.1867 H   0  0  0  0  0  0  0  0  0  0  0  0
    6.7726   -2.3199   -0.9861 H   0  0  0  0  0  0  0  0  0  0  0  0
    7.0291   -0.6060   -1.3256 H   0  0  0  0  0  0  0  0  0  0  0  0
    6.7924   -1.7290   -2.6574 H   0  0  0  0  0  0  0  0  0  0  0  0
   -2.3565    1.5938    0.8547 H   0  0  0  0  0  0  0  0  0  0  0  0
   -2.1570    3.3339    1.0691 H   0  0  0  0  0  0  0  0  0  0  0  0
   -3.3905   -0.7457   -3.0562 H   0  0  0  0  0  0  0  0  0  0  0  0
   -5.4395   -1.8573   -2.3162 H   0  0  0  0  0  0  0  0  0  0  0  0
    3.8762   -4.4727   -2.3427 H   0  0  0  0  0  0  0  0  0  0  0  0
    5.4557   -4.0310   -1.7043 H   0  0  0  0  0  0  0  0  0  0  0  0
    3.9912   -3.7958   -0.7240 H   0  0  0  0  0  0  0  0  0  0  0  0
   -3.2564    3.7238   -1.1416 H   0  0  0  0  0  0  0  0  0  0  0  0
   -3.4004    1.9825   -1.3878 H   0  0  0  0  0  0  0  0  0  0  0  0
   -4.8108    1.8160    0.6867 H   0  0  0  0  0  0  0  0  0  0  0  0
   -4.6920    3.5570    0.9056 H   0  0  0  0  0  0  0  0  0  0  0  0
   -4.4142   -5.7016   -0.4265 H   0  0  0  0  0  0  0  0  0  0  0  0
   -4.7178   -6.6207    1.0569 H   0  0  0  0  0  0  0  0  0  0  0  0
   -3.0668   -6.5338    0.4267 H   0  0  0  0  0  0  0  0  0  0  0  0
   -5.8437    3.9358   -1.2664 H   0  0  0  0  0  0  0  0  0  0  0  0
   -5.9093    2.1816   -1.5441 H   0  0  0  0  0  0  0  0  0  0  0  0
   -8.4117    3.9567   -1.4891 H   0  0  0  0  0  0  0  0  0  0  0  0
   -8.4545    2.1865   -1.6656 H   0  0  0  0  0  0  0  0  0  0  0  0
   -9.8234    3.7798    0.5689 H   0  0  0  0  0  0  0  0  0  0  0  0
   -9.8728    2.0201    0.3860 H   0  0  0  0  0  0  0  0  0  0  0  0
  -10.6311    3.0581   -0.8357 H   0  0  0  0  0  0  0  0  0  0  0  0
  1 19  2  0  0  0  0
  2  9  1  0  0  0  0
  2 41  1  0  0  0  0
  3 25  2  0  0  0  0
  4 28  2  0  0  0  0
  5 34  2  0  0  0  0
  6 43  2  0  0  0  0
  7 12  1  0  0  0  0
  7 14  1  0  0  0  0
  7 19  1  0  0  0  0
  8 15  1  0  0  0  0
  8 28  1  0  0  0  0
  8 63  1  0  0  0  0
  9 20  1  0  0  0  0
  9 27  1  0  0  0  0
 10 25  1  0  0  0  0
 10 26  1  0  0  0  0
 10 67  1  0  0  0  0
 11 23  1  0  0  0  0
 11 34  1  0  0  0  0
 11 68  1  0  0  0  0
 12 13  1  0  0  0  0
 12 25  1  0  0  0  0
 12 46  1  0  0  0  0
 13 16  1  0  0  0  0
 13 47  1  0  0  0  0
 13 48  1  0  0  0  0
 14 17  1  0  0  0  0
 14 49  1  0  0  0  0
 14 50  1  0  0  0  0
 15 19  1  0  0  0  0
 15 21  1  0  0  0  0
 15 51  1  0  0  0  0
 16 17  1  0  0  0  0
 16 52  1  0  0  0  0
 16 53  1  0  0  0  0
 17 54  1  0  0  0  0
 17 55  1  0  0  0  0
 18 20  1  0  0  0  0
 18 22  1  0  0  0  0
 18 30  1  0  0  0  0
 18 56  1  0  0  0  0
 20 32  1  0  0  0  0
 20 57  1  0  0  0  0
 21 29  1  0  0  0  0
 21 33  1  0  0  0  0
 21 58  1  0  0  0  0
 22 24  1  0  0  0  0
 22 27  2  0  0  0  0
 23 24  1  0  0  0  0
 23 28  1  0  0  0  0
 23 59  1  0  0  0  0
 24 60  1  0  0  0  0
 24 61  1  0  0  0  0
 26 31  1  0  0  0  0
 26 34  1  0  0  0  0
 26 62  1  0  0  0  0
 27 64  1  0  0  0  0
 29 38  1  0  0  0  0
 29 65  1  0  0  0  0
 29 66  1  0  0  0  0
 30 36  2  0  0  0  0
 30 69  1  0  0  0  0
 31 35  1  0  0  0  0
 31 70  1  0  0  0  0
 31 71  1  0  0  0  0
 32 37  2  0  0  0  0
 32 72  1  0  0  0  0
 33 73  1  0  0  0  0
 33 74  1  0  0  0  0
 33 75  1  0  0  0  0
 35 39  1  0  0  0  0
 35 76  1  0  0  0  0
 35 77  1  0  0  0  0
 36 37  1  0  0  0  0
 36 78  1  0  0  0  0
 37 79  1  0  0  0  0
 38 80  1  0  0  0  0
 38 81  1  0  0  0  0
 38 82  1  0  0  0  0
 39 40  1  0  0  0  0
 39 83  1  0  0  0  0
 39 84  1  0  0  0  0
 40 42  1  0  0  0  0
 40 85  1  0  0  0  0
 40 86  1  0  0  0  0
 41 87  1  0  0  0  0
 41 88  1  0  0  0  0
 41 89  1  0  0  0  0
 42 43  1  0  0  0  0
 42 90  1  0  0  0  0
 42 91  1  0  0  0  0
 43 44  1  0  0  0  0
 44 45  1  0  0  0  0
 44 92  1  0  0  0  0
 44 93  1  0  0  0  0
 45 94  1  0  0  0  0
 45 95  1  0  0  0  0
 45 96  1  0  0  0  0
M  END
> <PUBCHEM_COMPOUND_CID>
44543716

> <PUBCHEM_CONFORMER_RMSD>
1.4

> <PUBCHEM_CONFORMER_DIVERSEORDER>
1
31
13
5
39
22
40
28
26
12
33
21
35
9
15
34
6
25
42
38
11
19
14
2
17
20
24
41
36
30
10
37
16
23
29
7
27
4
32
8
3
18

> <PUBCHEM_MMFF94_PARTIAL_CHARGES>
41
1 -0.57
10 -0.73
11 -0.73
12 0.36
14 0.3
15 0.36
18 0.28
19 0.57
2 -0.26
20 0.51
22 -0.28
23 0.36
24 0.14
25 0.57
26 0.36
27 -0.05
28 0.57
3 -0.57
30 -0.29
32 -0.29
34 0.57
36 -0.15
37 -0.15
4 -0.57
41 0.28
42 0.06
43 0.45
44 0.06
5 -0.57
6 -0.57
63 0.37
64 0.15
67 0.37
68 0.37
69 0.15
7 -0.66
72 0.15
78 0.15
79 0.15
8 -0.73
9 -0.49

> <PUBCHEM_EFFECTIVE_ROTOR_COUNT>
14.2

> <PUBCHEM_PHARMACOPHORE_FEATURES>
15
1 1 acceptor
1 10 donor
1 11 donor
1 3 acceptor
1 33 hydrophobe
1 38 hydrophobe
1 4 acceptor
1 45 hydrophobe
1 5 acceptor
1 6 acceptor
1 8 donor
5 31 35 39 40 42 hydrophobe
5 9 18 20 22 27 rings
6 18 20 30 32 36 37 rings
6 7 12 13 14 16 17 rings

> <PUBCHEM_HEAVY_ATOM_COUNT>
45

> <PUBCHEM_ATOM_DEF_STEREO_COUNT>
5

> <PUBCHEM_ATOM_UDEF_STEREO_COUNT>
2

> <PUBCHEM_BOND_DEF_STEREO_COUNT>
0

> <PUBCHEM_BOND_UDEF_STEREO_COUNT>
0

> <PUBCHEM_ISOTOPIC_ATOM_COUNT>
0

> <PUBCHEM_COMPONENT_COUNT>
1

> <PUBCHEM_CACTVS_TAUTO_COUNT>
162

> <PUBCHEM_CONFORMER_ID>
02A7AEE400000001

> <PUBCHEM_MMFF94_ENERGY>
106.5104

> <PUBCHEM_FEATURE_SELFOVERLAP>
76.308

> <PUBCHEM_SHAPE_FINGERPRINT>
14068700 686 18124311872717473616
15001296 14 18335977593106467813
15484559 13 17618209612372442756
16112460 7 18271241621929755673
20775438 99 18270663286960082990
4144715 1 18337399356299683467
59520647 119 18408320009050265929
6036956 94 17612037379502352236

> <PUBCHEM_SHAPE_MULTIPOLES>
865.96
20
7.46
1.68
24.07
4.91
-0.28
-19.55
-4.11
7.11
0.37
-1.18
0.85
2.3

> <PUBCHEM_SHAPE_SELFOVERLAP>
1780.306

> <PUBCHEM_SHAPE_VOLUME>
491.3

> <PUBCHEM_COORDINATE_TYPE>
2
5
10

$$$$
