54732806
  -OEChem-12071808363D

 32 34  0     1  0  0  0  0  0999 V2000
    2.0441    0.1738    0.9945 O   0  0  0  0  0  0  0  0  0  0  0  0
    1.9249   -2.7411   -0.3992 O   0  0  0  0  0  0  0  0  0  0  0  0
    2.4877    0.4611   -1.9562 O   0  0  0  0  0  0  0  0  0  0  0  0
    4.4188    1.5448    1.5787 O   0  0  0  0  0  0  0  0  0  0  0  0
   -0.2465    0.1068    0.1697 N   0  0  0  0  0  0  0  0  0  0  0  0
   -1.5270    1.8206   -0.4568 N   0  0  0  0  0  0  0  0  0  0  0  0
   -1.9644   -1.5352    0.6726 N   0  0  0  0  0  0  0  0  0  0  0  0
   -4.1972   -0.6274    0.2892 N   0  0  0  0  0  0  0  0  0  0  0  0
   -4.5599    1.6074   -0.4855 N   0  0  0  0  0  0  0  0  0  0  0  0
    1.5766   -1.4028   -0.7480 C   0  0  1  0  0  0  0  0  0  0  0  0
    1.0054   -0.6842    0.4810 C   0  0  1  0  0  0  0  0  0  0  0  0
    2.8258   -0.6134   -1.0881 C   0  0  2  0  0  0  0  0  0  0  0  0
    3.2591   -0.0862    0.2731 C   0  0  1  0  0  0  0  0  0  0  0  0
    4.1056    1.1736    0.2459 C   0  0  0  0  0  0  0  0  0  0  0  0
   -1.5371   -0.3274    0.2751 C   0  0  0  0  0  0  0  0  0  0  0  0
   -0.2921    1.4021   -0.2732 C   0  0  0  0  0  0  0  0  0  0  0  0
   -2.3154    0.7498   -0.1179 C   0  0  0  0  0  0  0  0  0  0  0  0
   -3.6946    0.5683   -0.1018 C   0  0  0  0  0  0  0  0  0  0  0  0
   -3.3139   -1.5907    0.6469 C   0  0  0  0  0  0  0  0  0  0  0  0
    0.8652   -1.4532   -1.5792 H   0  0  0  0  0  0  0  0  0  0  0  0
    0.7161   -1.3740    1.2822 H   0  0  0  0  0  0  0  0  0  0  0  0
    3.6163   -1.2074   -1.5573 H   0  0  0  0  0  0  0  0  0  0  0  0
    3.7793   -0.8718    0.8361 H   0  0  0  0  0  0  0  0  0  0  0  0
    3.5599    2.0107   -0.2013 H   0  0  0  0  0  0  0  0  0  0  0  0
    5.0364    1.0093   -0.3053 H   0  0  0  0  0  0  0  0  0  0  0  0
    1.1043   -3.1977   -0.1465 H   0  0  0  0  0  0  0  0  0  0  0  0
    2.1716    0.0737   -2.7901 H   0  0  0  0  0  0  0  0  0  0  0  0
    0.5982    1.9916   -0.4433 H   0  0  0  0  0  0  0  0  0  0  0  0
    4.9626    2.3496    1.5316 H   0  0  0  0  0  0  0  0  0  0  0  0
   -3.7511   -2.5347    0.9543 H   0  0  0  0  0  0  0  0  0  0  0  0
   -4.1874    2.5006   -0.7780 H   0  0  0  0  0  0  0  0  0  0  0  0
   -5.5585    1.4509   -0.4656 H   0  0  0  0  0  0  0  0  0  0  0  0
  1 11  1  0  0  0  0
  1 13  1  0  0  0  0
  2 10  1  0  0  0  0
  2 26  1  0  0  0  0
  3 12  1  0  0  0  0
  3 27  1  0  0  0  0
  4 14  1  0  0  0  0
  4 29  1  0  0  0  0
  5 11  1  0  0  0  0
  5 15  1  0  0  0  0
  5 16  1  0  0  0  0
  6 16  2  0  0  0  0
  6 17  1  0  0  0  0
  7 15  2  0  0  0  0
  7 19  1  0  0  0  0
  8 18  1  0  0  0  0
  8 19  2  0  0  0  0
  9 18  1  0  0  0  0
  9 31  1  0  0  0  0
  9 32  1  0  0  0  0
 10 11  1  0  0  0  0
 10 12  1  0  0  0  0
 10 20  1  0  0  0  0
 11 21  1  0  0  0  0
 12 13  1  0  0  0  0
 12 22  1  0  0  0  0
 13 14  1  0  0  0  0
 13 23  1  0  0  0  0
 14 24  1  0  0  0  0
 14 25  1  0  0  0  0
 15 17  1  0  0  0  0
 16 28  1  0  0  0  0
 17 18  2  0  0  0  0
 19 30  1  0  0  0  0
M  END
> <PUBCHEM_COMPOUND_CID>
54732806

> <PUBCHEM_CONFORMER_RMSD>
0.6

> <PUBCHEM_CONFORMER_DIVERSEORDER>
1
27
8
23
31
10
29
17
26
18
14
11
2
15
13
9
6
3
30
20
16
5
4
25
24
7
19
21
28
12
22

> <PUBCHEM_MMFF94_PARTIAL_CHARGES>
26
1 -0.56
10 0.28
11 0.54
12 0.28
13 0.28
14 0.28
15 0.11
16 0.04
17 0.23
18 0.41
19 0.47
2 -0.68
26 0.4
27 0.4
28 0.15
29 0.4
3 -0.68
30 0.15
31 0.4
32 0.4
4 -0.68
5 0.05
6 -0.57
7 -0.57
8 -0.62
9 -0.9

> <PUBCHEM_EFFECTIVE_ROTOR_COUNT>
3

> <PUBCHEM_PHARMACOPHORE_FEATURES>
15
1 1 acceptor
1 2 acceptor
1 2 donor
1 3 acceptor
1 3 donor
1 4 acceptor
1 4 donor
1 9 cation
1 9 donor
3 5 6 16 cation
3 5 7 15 cation
3 7 8 19 cation
5 1 10 11 12 13 rings
5 5 6 15 16 17 rings
6 7 8 15 17 18 19 rings

> <PUBCHEM_HEAVY_ATOM_COUNT>
19

> <PUBCHEM_ATOM_DEF_STEREO_COUNT>
2

> <PUBCHEM_ATOM_UDEF_STEREO_COUNT>
2

> <PUBCHEM_BOND_DEF_STEREO_COUNT>
0

> <PUBCHEM_BOND_UDEF_STEREO_COUNT>
0

> <PUBCHEM_ISOTOPIC_ATOM_COUNT>
0

> <PUBCHEM_COMPONENT_COUNT>
1

> <PUBCHEM_CACTVS_TAUTO_COUNT>
3

> <PUBCHEM_CONFORMER_ID>
0343280600000001

> <PUBCHEM_MMFF94_ENERGY>
45.2016

> <PUBCHEM_FEATURE_SELFOVERLAP>
76.732

> <PUBCHEM_SHAPE_FINGERPRINT>
10608611 8 18339641140000986936
107287 299 17917992776224509150
10871710 139 16393523551062793876
11132069 177 18260831501028565973
12173636 292 18189613844170647541
12236239 1 17022621987978625264
13214271 11 18410567426973773549
13296908 3 18272656731547872063
14866123 147 10741162575641528404
15219456 202 18342176656748435178
15375358 24 18411414016546369185
16945 1 18335996302115520613
17980427 23 17822570628895017900
18186145 218 18271538493672638475
19784866 170 18410575106306779064
200 152 17489583420548021643
20279233 1 18413390929836899507
20510252 161 18339924801675532601
20645477 56 18261112920598164669
20645477 70 17703790262807105631
23402539 116 18187076274011905102
23557571 272 18336554888323997448
23559900 14 18335988558453165902
2748010 2 18336842900368078879
296302 2 18272368689428924729
34934 24 18408878530116860583
474 4 15937838399670758620
495365 180 17844793820344647643
5104073 3 18409451345488959419
633830 44 16773252703338201375
7364860 26 18268146457779051106
77492 1 16805325504511846987
81228 2 18115320964088680321
9709674 26 18409453557302501703

> <PUBCHEM_SHAPE_MULTIPOLES>
342.63
8.34
1.98
1.1
1.34
0.54
-0.15
-2.21
0.96
0.06
-0.05
-1.11
-0.12
1.33

> <PUBCHEM_SHAPE_SELFOVERLAP>
743.651

> <PUBCHEM_SHAPE_VOLUME>
183.7

> <PUBCHEM_COORDINATE_TYPE>
2
5
10

$$$$
