52914864
  -OEChem-12071809003D

 31 30  0     0  0  0  0  0  0999 V2000
    3.8803   -2.1902    0.5971 O   0  0  0  0  0  0  0  0  0  0  0  0
    1.9368   -1.8548   -0.5268 O   0  0  0  0  0  0  0  0  0  0  0  0
   -0.9601    2.5219    0.1066 C   0  0  0  0  0  0  0  0  0  0  0  0
   -1.5171    1.1003   -0.0453 C   0  0  0  0  0  0  0  0  0  0  0  0
    0.4464    2.6891   -0.4797 C   0  0  0  0  0  0  0  0  0  0  0  0
   -2.9319    0.9491    0.5303 C   0  0  0  0  0  0  0  0  0  0  0  0
    1.4777    1.8250    0.1870 C   0  0  0  0  0  0  0  0  0  0  0  0
   -3.6399   -0.3689    0.3621 C   0  0  0  0  0  0  0  0  0  0  0  0
    2.2212    0.9167   -0.4623 C   0  0  0  0  0  0  0  0  0  0  0  0
   -3.1563   -1.4934   -0.1863 C   0  0  0  0  0  0  0  0  0  0  0  0
    3.2591    0.0644    0.2005 C   0  0  0  0  0  0  0  0  0  0  0  0
   -3.9429   -2.7567   -0.3147 C   0  0  0  0  0  0  0  0  0  0  0  0
    2.9268   -1.4026    0.0315 C   0  0  0  0  0  0  0  0  0  0  0  0
   -0.9487    2.7952    1.1694 H   0  0  0  0  0  0  0  0  0  0  0  0
   -1.6331    3.2290   -0.3937 H   0  0  0  0  0  0  0  0  0  0  0  0
   -0.8553    0.3848    0.4570 H   0  0  0  0  0  0  0  0  0  0  0  0
   -1.5259    0.8383   -1.1108 H   0  0  0  0  0  0  0  0  0  0  0  0
    0.4120    2.4928   -1.5585 H   0  0  0  0  0  0  0  0  0  0  0  0
    0.7524    3.7358   -0.3633 H   0  0  0  0  0  0  0  0  0  0  0  0
   -2.8988    1.1738    1.6039 H   0  0  0  0  0  0  0  0  0  0  0  0
   -3.5712    1.7164    0.0748 H   0  0  0  0  0  0  0  0  0  0  0  0
    1.6176    1.9663    1.2558 H   0  0  0  0  0  0  0  0  0  0  0  0
   -4.6611   -0.3819    0.7397 H   0  0  0  0  0  0  0  0  0  0  0  0
    2.0894    0.7897   -1.5343 H   0  0  0  0  0  0  0  0  0  0  0  0
    3.3294    0.2805    1.2719 H   0  0  0  0  0  0  0  0  0  0  0  0
    4.2297    0.2572   -0.2682 H   0  0  0  0  0  0  0  0  0  0  0  0
   -2.1411   -1.5206   -0.5705 H   0  0  0  0  0  0  0  0  0  0  0  0
   -3.4378   -3.5656    0.2218 H   0  0  0  0  0  0  0  0  0  0  0  0
   -4.9556   -2.6598    0.0894 H   0  0  0  0  0  0  0  0  0  0  0  0
   -4.0222   -3.0400   -1.3687 H   0  0  0  0  0  0  0  0  0  0  0  0
    3.6726   -3.1437    0.4967 H   0  0  0  0  0  0  0  0  0  0  0  0
  1 13  1  0  0  0  0
  1 31  1  0  0  0  0
  2 13  2  0  0  0  0
  3  4  1  0  0  0  0
  3  5  1  0  0  0  0
  3 14  1  0  0  0  0
  3 15  1  0  0  0  0
  4  6  1  0  0  0  0
  4 16  1  0  0  0  0
  4 17  1  0  0  0  0
  5  7  1  0  0  0  0
  5 18  1  0  0  0  0
  5 19  1  0  0  0  0
  6  8  1  0  0  0  0
  6 20  1  0  0  0  0
  6 21  1  0  0  0  0
  7  9  2  0  0  0  0
  7 22  1  0  0  0  0
  8 10  2  0  0  0  0
  8 23  1  0  0  0  0
  9 11  1  0  0  0  0
  9 24  1  0  0  0  0
 10 12  1  0  0  0  0
 10 27  1  0  0  0  0
 11 13  1  0  0  0  0
 11 25  1  0  0  0  0
 11 26  1  0  0  0  0
 12 28  1  0  0  0  0
 12 29  1  0  0  0  0
 12 30  1  0  0  0  0
M  END
> <PUBCHEM_COMPOUND_CID>
52914864

> <PUBCHEM_CONFORMER_RMSD>
0.8

> <PUBCHEM_CONFORMER_DIVERSEORDER>
1
64
19
35
41
17
5
30
59
40
2
24
51
76
11
21
83
13
60
71
61
7
43
65
75
56
78
82
74
70
46
8
28
85
3
33
14
80
72
20
15
16
45
39
26
9
34
63
81
29
18
79
62
88
57
68
67
48
91
10
37
4
31
86
54
25
90
22
49
50
12
47
27
23
93
89
55
66
73
36
52
69
32
44
6
84
87
92
77
38
42
58
53

> <PUBCHEM_MMFF94_PARTIAL_CHARGES>
16
1 -0.65
10 -0.29
11 0.2
12 0.14
13 0.66
2 -0.57
22 0.15
23 0.15
24 0.15
27 0.15
31 0.5
5 0.14
6 0.14
7 -0.29
8 -0.29
9 -0.29

> <PUBCHEM_EFFECTIVE_ROTOR_COUNT>
7

> <PUBCHEM_PHARMACOPHORE_FEATURES>
6
1 1 acceptor
1 12 hydrophobe
1 2 acceptor
3 1 2 13 anion
3 3 5 7 hydrophobe
3 4 6 8 hydrophobe

> <PUBCHEM_HEAVY_ATOM_COUNT>
13

> <PUBCHEM_ATOM_DEF_STEREO_COUNT>
0

> <PUBCHEM_ATOM_UDEF_STEREO_COUNT>
0

> <PUBCHEM_BOND_DEF_STEREO_COUNT>
2

> <PUBCHEM_BOND_UDEF_STEREO_COUNT>
0

> <PUBCHEM_ISOTOPIC_ATOM_COUNT>
0

> <PUBCHEM_COMPONENT_COUNT>
1

> <PUBCHEM_CACTVS_TAUTO_COUNT>
1

> <PUBCHEM_CONFORMER_ID>
03276AB000000001

> <PUBCHEM_MMFF94_ENERGY>
1.9326

> <PUBCHEM_FEATURE_SELFOVERLAP>
30.506

> <PUBCHEM_SHAPE_FINGERPRINT>
117890 22 18342746178054605935
12596599 1 18058466338649801971
14251705 54 18338799021658196983
14251717 144 18122342647264701295
14251731 5 18410015441998363115
14251757 5 17116940023397140350
14916288 52 18124037823380190462
15352361 1 18410571799171658363
19107657 46 18412266107798043229
20291156 8 18410858771732602321
20621476 51 18120356671419967506
20621476 91 18191279686049161466
20645477 70 17901377111519837877
23500284 5 18341899584403697721
4283 87 17695622236212792879
556388 4 18051689146982698519
58999712 31 18411985749644750133
8199 65 17978512258238310005

> <PUBCHEM_SHAPE_MULTIPOLES>
255.8
7.89
3.61
0.73
2.65
0.25
0
6.95
0.56
-0.09
-0.22
-0.01
0
-0.8

> <PUBCHEM_SHAPE_SELFOVERLAP>
473.875

> <PUBCHEM_SHAPE_VOLUME>
159.9

> <PUBCHEM_COORDINATE_TYPE>
2
5
10

$$$$
