51051617
  -OEChem-12071808563D

 77 80  0     1  0  0  0  0  0999 V2000
    8.1326    0.1418    0.9559 O   0  0  0  0  0  0  0  0  0  0  0  0
   -0.4644    0.4401   -0.6562 C   0  0  1  0  0  0  0  0  0  0  0  0
    0.2416   -0.8556   -0.2011 C   0  0  2  0  0  0  0  0  0  0  0  0
    1.7407   -0.8644   -0.5208 C   0  0  1  0  0  0  0  0  0  0  0  0
    2.4104    0.3470    0.2017 C   0  0  1  0  0  0  0  0  0  0  0  0
    3.9633    0.3902   -0.0373 C   0  0  2  0  0  0  0  0  0  0  0  0
   -1.9151    0.0890   -0.2441 C   0  0  2  0  0  0  0  0  0  0  0  0
    0.1589    1.6108    0.1175 C   0  0  0  0  0  0  0  0  0  0  0  0
    1.6819    1.6844   -0.0954 C   0  0  0  0  0  0  0  0  0  0  0  0
   -0.6430   -1.9635   -0.7646 C   0  0  0  0  0  0  0  0  0  0  0  0
    4.5619   -0.9836    0.4046 C   0  0  1  0  0  0  0  0  0  0  0  0
    2.3956   -2.1866   -0.0968 C   0  0  0  0  0  0  0  0  0  0  0  0
   -2.0690   -1.3898   -0.6704 C   0  0  0  0  0  0  0  0  0  0  0  0
    3.9073   -2.1753   -0.3043 C   0  0  0  0  0  0  0  0  0  0  0  0
   -0.3681    0.7111   -2.1786 C   0  0  0  0  0  0  0  0  0  0  0  0
   -3.0159    0.9822   -0.7976 C   0  0  1  0  0  0  0  0  0  0  0  0
    4.6161    1.4925    0.8521 C   0  0  0  0  0  0  0  0  0  0  0  0
    4.2912    0.7017   -1.5217 C   0  0  0  0  0  0  0  0  0  0  0  0
    6.0959   -1.0353    0.2617 C   0  0  0  0  0  0  0  0  0  0  0  0
   -4.4040    0.3074   -0.7598 C   0  0  0  0  0  0  0  0  0  0  0  0
    6.0992    1.3387    1.0456 C   0  0  0  0  0  0  0  0  0  0  0  0
   -3.0652    2.3001   -0.0155 C   0  0  0  0  0  0  0  0  0  0  0  0
    6.7666    0.2103    0.7683 C   0  0  0  0  0  0  0  0  0  0  0  0
   -4.8234   -0.1324    0.6483 C   0  0  0  0  0  0  0  0  0  0  0  0
   -6.2199   -0.7974    0.7053 C   0  0  2  0  0  0  0  0  0  0  0  0
   -7.3476    0.0424    0.0393 C   0  0  0  0  0  0  0  0  0  0  0  0
   -6.5251   -1.1737    2.1624 C   0  0  0  0  0  0  0  0  0  0  0  0
   -8.6992   -0.6809    0.0770 C   0  0  0  0  0  0  0  0  0  0  0  0
   -7.5033    1.4487    0.6243 C   0  0  0  0  0  0  0  0  0  0  0  0
    0.1559   -0.9296    0.8963 H   0  0  0  0  0  0  0  0  0  0  0  0
    1.8760   -0.7703   -1.6030 H   0  0  0  0  0  0  0  0  0  0  0  0
    2.2695    0.1753    1.2811 H   0  0  0  0  0  0  0  0  0  0  0  0
   -1.9678    0.1017    0.8552 H   0  0  0  0  0  0  0  0  0  0  0  0
   -0.0434    1.5093    1.1913 H   0  0  0  0  0  0  0  0  0  0  0  0
   -0.2631    2.5690   -0.1949 H   0  0  0  0  0  0  0  0  0  0  0  0
    2.0744    2.4742    0.5551 H   0  0  0  0  0  0  0  0  0  0  0  0
    1.8783    2.0068   -1.1224 H   0  0  0  0  0  0  0  0  0  0  0  0
   -0.3882   -2.1893   -1.8062 H   0  0  0  0  0  0  0  0  0  0  0  0
   -0.5495   -2.8919   -0.1917 H   0  0  0  0  0  0  0  0  0  0  0  0
    4.3449   -1.1009    1.4786 H   0  0  0  0  0  0  0  0  0  0  0  0
    2.1804   -2.3861    0.9608 H   0  0  0  0  0  0  0  0  0  0  0  0
    1.9680   -3.0192   -0.6674 H   0  0  0  0  0  0  0  0  0  0  0  0
   -2.5403   -1.5007   -1.6527 H   0  0  0  0  0  0  0  0  0  0  0  0
   -2.6515   -1.9713    0.0492 H   0  0  0  0  0  0  0  0  0  0  0  0
    4.3245   -3.1120    0.0852 H   0  0  0  0  0  0  0  0  0  0  0  0
    4.1329   -2.1592   -1.3769 H   0  0  0  0  0  0  0  0  0  0  0  0
   -0.7911    1.6902   -2.4301 H   0  0  0  0  0  0  0  0  0  0  0  0
    0.6639    0.7270   -2.5391 H   0  0  0  0  0  0  0  0  0  0  0  0
   -0.8976   -0.0394   -2.7739 H   0  0  0  0  0  0  0  0  0  0  0  0
   -2.8442    1.2220   -1.8518 H   0  0  0  0  0  0  0  0  0  0  0  0
    4.4293    2.4815    0.4160 H   0  0  0  0  0  0  0  0  0  0  0  0
    4.1557    1.4969    1.8484 H   0  0  0  0  0  0  0  0  0  0  0  0
    3.8536   -0.0270   -2.2087 H   0  0  0  0  0  0  0  0  0  0  0  0
    5.3684    0.7128   -1.7149 H   0  0  0  0  0  0  0  0  0  0  0  0
    3.9216    1.6897   -1.8142 H   0  0  0  0  0  0  0  0  0  0  0  0
    6.4680   -1.9014    0.8239 H   0  0  0  0  0  0  0  0  0  0  0  0
    6.3834   -1.1931   -0.7848 H   0  0  0  0  0  0  0  0  0  0  0  0
   -4.4472   -0.5480   -1.4421 H   0  0  0  0  0  0  0  0  0  0  0  0
   -5.1252    1.0296   -1.1588 H   0  0  0  0  0  0  0  0  0  0  0  0
    6.6381    2.1987    1.4342 H   0  0  0  0  0  0  0  0  0  0  0  0
   -4.0083    2.8288   -0.1951 H   0  0  0  0  0  0  0  0  0  0  0  0
   -2.2774    2.9811   -0.3429 H   0  0  0  0  0  0  0  0  0  0  0  0
   -2.9663    2.1539    1.0649 H   0  0  0  0  0  0  0  0  0  0  0  0
   -4.8217    0.7345    1.3195 H   0  0  0  0  0  0  0  0  0  0  0  0
   -4.1026   -0.8338    1.0751 H   0  0  0  0  0  0  0  0  0  0  0  0
   -6.1469   -1.7392    0.1432 H   0  0  0  0  0  0  0  0  0  0  0  0
    8.4259   -0.7443    0.6824 H   0  0  0  0  0  0  0  0  0  0  0  0
   -7.1023    0.1530   -1.0241 H   0  0  0  0  0  0  0  0  0  0  0  0
   -7.4410   -1.7662    2.2422 H   0  0  0  0  0  0  0  0  0  0  0  0
   -5.7159   -1.7838    2.5793 H   0  0  0  0  0  0  0  0  0  0  0  0
   -6.6308   -0.2879    2.7962 H   0  0  0  0  0  0  0  0  0  0  0  0
   -8.6068   -1.7035   -0.3033 H   0  0  0  0  0  0  0  0  0  0  0  0
   -9.1129   -0.7235    1.0895 H   0  0  0  0  0  0  0  0  0  0  0  0
   -9.4290   -0.1587   -0.5517 H   0  0  0  0  0  0  0  0  0  0  0  0
   -7.7827    1.4178    1.6820 H   0  0  0  0  0  0  0  0  0  0  0  0
   -6.5839    2.0330    0.5314 H   0  0  0  0  0  0  0  0  0  0  0  0
   -8.2883    1.9984    0.0928 H   0  0  0  0  0  0  0  0  0  0  0  0
  1 23  1  0  0  0  0
  1 67  1  0  0  0  0
  2  3  1  0  0  0  0
  2  7  1  0  0  0  0
  2  8  1  0  0  0  0
  2 15  1  0  0  0  0
  3  4  1  0  0  0  0
  3 10  1  0  0  0  0
  3 30  1  0  0  0  0
  4  5  1  0  0  0  0
  4 12  1  0  0  0  0
  4 31  1  0  0  0  0
  5  6  1  0  0  0  0
  5  9  1  0  0  0  0
  5 32  1  0  0  0  0
  6 11  1  0  0  0  0
  6 17  1  0  0  0  0
  6 18  1  0  0  0  0
  7 13  1  0  0  0  0
  7 16  1  0  0  0  0
  7 33  1  0  0  0  0
  8  9  1  0  0  0  0
  8 34  1  0  0  0  0
  8 35  1  0  0  0  0
  9 36  1  0  0  0  0
  9 37  1  0  0  0  0
 10 13  1  0  0  0  0
 10 38  1  0  0  0  0
 10 39  1  0  0  0  0
 11 14  1  0  0  0  0
 11 19  1  0  0  0  0
 11 40  1  0  0  0  0
 12 14  1  0  0  0  0
 12 41  1  0  0  0  0
 12 42  1  0  0  0  0
 13 43  1  0  0  0  0
 13 44  1  0  0  0  0
 14 45  1  0  0  0  0
 14 46  1  0  0  0  0
 15 47  1  0  0  0  0
 15 48  1  0  0  0  0
 15 49  1  0  0  0  0
 16 20  1  0  0  0  0
 16 22  1  0  0  0  0
 16 50  1  0  0  0  0
 17 21  1  0  0  0  0
 17 51  1  0  0  0  0
 17 52  1  0  0  0  0
 18 53  1  0  0  0  0
 18 54  1  0  0  0  0
 18 55  1  0  0  0  0
 19 23  1  0  0  0  0
 19 56  1  0  0  0  0
 19 57  1  0  0  0  0
 20 24  1  0  0  0  0
 20 58  1  0  0  0  0
 20 59  1  0  0  0  0
 21 23  2  0  0  0  0
 21 60  1  0  0  0  0
 22 61  1  0  0  0  0
 22 62  1  0  0  0  0
 22 63  1  0  0  0  0
 24 25  1  0  0  0  0
 24 64  1  0  0  0  0
 24 65  1  0  0  0  0
 25 26  1  0  0  0  0
 25 27  1  0  0  0  0
 25 66  1  0  0  0  0
 26 28  1  0  0  0  0
 26 29  1  0  0  0  0
 26 68  1  0  0  0  0
 27 69  1  0  0  0  0
 27 70  1  0  0  0  0
 27 71  1  0  0  0  0
 28 72  1  0  0  0  0
 28 73  1  0  0  0  0
 28 74  1  0  0  0  0
 29 75  1  0  0  0  0
 29 76  1  0  0  0  0
 29 77  1  0  0  0  0
M  END
> <PUBCHEM_COMPOUND_CID>
51051617

> <PUBCHEM_CONFORMER_RMSD>
0.8

> <PUBCHEM_CONFORMER_DIVERSEORDER>
2
27
37
14
50
15
23
49
22
32
29
39
38
52
47
31
48
17
34
18
13
40
53
30
4
19
36
45
20
25
21
42
51
9
1
16
26
41
46
6
33
44
10
43
7
3
11
5
8
35
12
24
28

> <PUBCHEM_MMFF94_PARTIAL_CHARGES>
7
1 -0.53
17 0.14
19 0.14
21 -0.29
23 -0.06
60 0.15
67 0.45

> <PUBCHEM_EFFECTIVE_ROTOR_COUNT>
6.8

> <PUBCHEM_PHARMACOPHORE_FEATURES>
9
1 1 donor
1 22 hydrophobe
1 27 hydrophobe
3 26 28 29 hydrophobe
5 16 20 24 25 26 hydrophobe
5 2 3 7 10 13 rings
6 2 3 4 5 8 9 rings
6 4 5 6 11 12 14 rings
6 6 11 17 19 21 23 rings

> <PUBCHEM_HEAVY_ATOM_COUNT>
29

> <PUBCHEM_ATOM_DEF_STEREO_COUNT>
8

> <PUBCHEM_ATOM_UDEF_STEREO_COUNT>
1

> <PUBCHEM_BOND_DEF_STEREO_COUNT>
0

> <PUBCHEM_BOND_UDEF_STEREO_COUNT>
0

> <PUBCHEM_ISOTOPIC_ATOM_COUNT>
0

> <PUBCHEM_COMPONENT_COUNT>
1

> <PUBCHEM_CACTVS_TAUTO_COUNT>
3

> <PUBCHEM_CONFORMER_ID>
030AFC6100000002

> <PUBCHEM_MMFF94_ENERGY>
91.9944

> <PUBCHEM_FEATURE_SELFOVERLAP>
45.778

> <PUBCHEM_SHAPE_FINGERPRINT>
10 15 18334855052106403496
106641 1 18408602578019673923
11456790 92 18201432559060730442
11578080 2 16986572394443392554
11646440 116 18273216408805071800
11724838 91 18411415128774347327
12166972 35 13767926823398786422
12236239 1 17346594183749733231
12788726 201 16845573063702029312
13073987 5 18341049605885361200
13782708 43 17385442107149910355
13811026 1 18260831514704856363
14251764 18 18060697303735090989
14341114 176 18412547600265729421
14461889 52 18260268551106995083
14849402 71 17846214522528110625
14856354 85 15626218044664700805
15183329 4 8935004763643510775
15301273 46 18187362121354902913
15461852 350 16056588864797742301
15728490 51 18059570339351975807
1813 80 17168146715306185772
18608769 82 18411978100434726555
18681886 176 10953460747255465260
19841028 212 17531519872311375130
21130935 74 18341054021866615843
21267235 1 18411984620601179430
21424621 283 14692580905306950855
21623969 137 18409451379511242723
21781051 124 18114479928241354666
21792934 111 18339917130383653497
22149856 69 18339941324445901297
22224240 67 18342174479775282343
23559900 14 18272077319897363288
23576562 1 11023521628362033697
249057 3 8646765599281927168
3009799 131 9655578504282122642
3178227 256 18412262852756190952
350125 39 18413108355760284085
3545911 37 18412821383383274382
4073 2 18187651353248837651
4093350 32 16845293818072054630
4340502 62 18408322185733736174
5104073 3 18265613186776818105
5283156 175 13695864814424309375
59682541 35 18410009970346808321
59755656 520 13614231569394296037

> <PUBCHEM_SHAPE_MULTIPOLES>
590.94
21.97
2.03
1.29
18.91
0.17
-0.07
0.18
9.59
-0.54
0
0.42
-0.04
0.96

> <PUBCHEM_SHAPE_SELFOVERLAP>
1221.841

> <PUBCHEM_SHAPE_VOLUME>
338.1

> <PUBCHEM_COORDINATE_TYPE>
2
5
10

$$$$
