9965750
  -OEChem-12071808393D

 53 54  0     1  0  0  0  0  0999 V2000
    4.8007    1.6802   -0.8830 O   0  0  0  0  0  0  0  0  0  0  0  0
    0.6038    0.4170    0.3800 C   0  0  1  0  0  0  0  0  0  0  0  0
    1.5933   -0.3583   -0.5851 C   0  0  1  0  0  0  0  0  0  0  0  0
    3.1198    0.0463   -0.4220 C   0  0  2  0  0  0  0  0  0  0  0  0
   -0.8617   -0.1766    0.3092 C   0  0  2  0  0  0  0  0  0  0  0  0
    1.1322    0.2968    1.8393 C   0  0  0  0  0  0  0  0  0  0  0  0
    1.4292   -1.9055   -0.4330 C   0  0  0  0  0  0  0  0  0  0  0  0
    3.5383   -0.0030    1.0671 C   0  0  0  0  0  0  0  0  0  0  0  0
    2.5893    0.7274    2.0124 C   0  0  0  0  0  0  0  0  0  0  0  0
    0.4814    1.9225    0.0290 C   0  0  0  0  0  0  0  0  0  0  0  0
   -0.0033   -2.4172   -0.5005 C   0  0  0  0  0  0  0  0  0  0  0  0
   -0.8659   -1.6786    0.4727 C   0  0  0  0  0  0  0  0  0  0  0  0
    3.4172    1.4446   -1.0125 C   0  0  0  0  0  0  0  0  0  0  0  0
    4.0504   -0.9186   -1.2052 C   0  0  0  0  0  0  0  0  0  0  0  0
   -1.6299    0.1827   -0.9779 C   0  0  0  0  0  0  0  0  0  0  0  0
   -1.5754   -2.3033    1.4247 C   0  0  0  0  0  0  0  0  0  0  0  0
   -3.0039   -0.4062   -0.9536 C   0  0  0  0  0  0  0  0  0  0  0  0
   -4.1426    0.1691   -0.5139 C   0  0  0  0  0  0  0  0  0  0  0  0
   -5.4882   -0.5070   -0.5494 C   0  0  0  0  0  0  0  0  0  0  0  0
   -4.0819    1.5319    0.0127 C   0  0  0  0  0  0  0  0  0  0  0  0
   -5.1028    2.2560    0.4892 C   0  0  0  0  0  0  0  0  0  0  0  0
    1.3017   -0.1220   -1.6184 H   0  0  0  0  0  0  0  0  0  0  0  0
   -1.4198    0.2667    1.1485 H   0  0  0  0  0  0  0  0  0  0  0  0
    1.0445   -0.7371    2.1940 H   0  0  0  0  0  0  0  0  0  0  0  0
    0.5064    0.8980    2.5116 H   0  0  0  0  0  0  0  0  0  0  0  0
    1.8750   -2.2423    0.5103 H   0  0  0  0  0  0  0  0  0  0  0  0
    1.9717   -2.4153   -1.2371 H   0  0  0  0  0  0  0  0  0  0  0  0
    4.5523    0.3902    1.2092 H   0  0  0  0  0  0  0  0  0  0  0  0
    3.5915   -1.0497    1.3947 H   0  0  0  0  0  0  0  0  0  0  0  0
    2.6929    1.8089    1.8800 H   0  0  0  0  0  0  0  0  0  0  0  0
    2.8955    0.5264    3.0466 H   0  0  0  0  0  0  0  0  0  0  0  0
    1.2575    2.5428    0.4763 H   0  0  0  0  0  0  0  0  0  0  0  0
    0.4862    2.0892   -1.0531 H   0  0  0  0  0  0  0  0  0  0  0  0
   -0.4495    2.3431    0.4299 H   0  0  0  0  0  0  0  0  0  0  0  0
   -0.0055   -3.4947   -0.2943 H   0  0  0  0  0  0  0  0  0  0  0  0
   -0.3937   -2.3046   -1.5179 H   0  0  0  0  0  0  0  0  0  0  0  0
    2.9254    2.2578   -0.4916 H   0  0  0  0  0  0  0  0  0  0  0  0
    3.1457    1.4917   -2.0727 H   0  0  0  0  0  0  0  0  0  0  0  0
    3.7655   -0.9660   -2.2625 H   0  0  0  0  0  0  0  0  0  0  0  0
    5.1049   -0.6253   -1.1567 H   0  0  0  0  0  0  0  0  0  0  0  0
    4.0229   -1.9352   -0.7989 H   0  0  0  0  0  0  0  0  0  0  0  0
   -1.6730    1.2601   -1.1516 H   0  0  0  0  0  0  0  0  0  0  0  0
   -1.1125   -0.2013   -1.8660 H   0  0  0  0  0  0  0  0  0  0  0  0
   -2.1904   -1.7488    2.1253 H   0  0  0  0  0  0  0  0  0  0  0  0
   -1.5569   -3.3834    1.5244 H   0  0  0  0  0  0  0  0  0  0  0  0
   -3.0791   -1.4168   -1.3547 H   0  0  0  0  0  0  0  0  0  0  0  0
    4.9854    2.5491   -1.2782 H   0  0  0  0  0  0  0  0  0  0  0  0
   -5.9035   -0.6037    0.4594 H   0  0  0  0  0  0  0  0  0  0  0  0
   -6.1916    0.0530   -1.1747 H   0  0  0  0  0  0  0  0  0  0  0  0
   -5.4160   -1.5171   -0.9678 H   0  0  0  0  0  0  0  0  0  0  0  0
   -3.1181    2.0284    0.0619 H   0  0  0  0  0  0  0  0  0  0  0  0
   -4.9272    3.2581    0.8677 H   0  0  0  0  0  0  0  0  0  0  0  0
   -6.1222    1.8893    0.5190 H   0  0  0  0  0  0  0  0  0  0  0  0
  1 13  1  0  0  0  0
  1 47  1  0  0  0  0
  2  3  1  0  0  0  0
  2  5  1  0  0  0  0
  2  6  1  0  0  0  0
  2 10  1  0  0  0  0
  3  4  1  0  0  0  0
  3  7  1  0  0  0  0
  3 22  1  0  0  0  0
  4  8  1  0  0  0  0
  4 13  1  0  0  0  0
  4 14  1  0  0  0  0
  5 12  1  0  0  0  0
  5 15  1  0  0  0  0
  5 23  1  0  0  0  0
  6  9  1  0  0  0  0
  6 24  1  0  0  0  0
  6 25  1  0  0  0  0
  7 11  1  0  0  0  0
  7 26  1  0  0  0  0
  7 27  1  0  0  0  0
  8  9  1  0  0  0  0
  8 28  1  0  0  0  0
  8 29  1  0  0  0  0
  9 30  1  0  0  0  0
  9 31  1  0  0  0  0
 10 32  1  0  0  0  0
 10 33  1  0  0  0  0
 10 34  1  0  0  0  0
 11 12  1  0  0  0  0
 11 35  1  0  0  0  0
 11 36  1  0  0  0  0
 12 16  2  0  0  0  0
 13 37  1  0  0  0  0
 13 38  1  0  0  0  0
 14 39  1  0  0  0  0
 14 40  1  0  0  0  0
 14 41  1  0  0  0  0
 15 17  1  0  0  0  0
 15 42  1  0  0  0  0
 15 43  1  0  0  0  0
 16 44  1  0  0  0  0
 16 45  1  0  0  0  0
 17 18  2  0  0  0  0
 17 46  1  0  0  0  0
 18 19  1  0  0  0  0
 18 20  1  0  0  0  0
 19 48  1  0  0  0  0
 19 49  1  0  0  0  0
 19 50  1  0  0  0  0
 20 21  2  0  0  0  0
 20 51  1  0  0  0  0
 21 52  1  0  0  0  0
 21 53  1  0  0  0  0
M  END
> <PUBCHEM_COMPOUND_CID>
9965750

> <PUBCHEM_CONFORMER_RMSD>
0.8

> <PUBCHEM_CONFORMER_DIVERSEORDER>
13
18
2
14
7
3
11
6
15
17
20
1
19
16
4
10
9
5
12
8

> <PUBCHEM_MMFF94_PARTIAL_CHARGES>
19
1 -0.68
11 0.14
12 -0.28
13 0.28
15 0.14
16 -0.3
17 -0.29
18 -0.14
19 0.14
20 -0.15
21 -0.3
44 0.15
45 0.15
46 0.15
47 0.4
5 0.14
51 0.15
52 0.15
53 0.15

> <PUBCHEM_EFFECTIVE_ROTOR_COUNT>
5.4

> <PUBCHEM_PHARMACOPHORE_FEATURES>
6
1 1 acceptor
1 1 donor
1 19 hydrophobe
1 21 hydrophobe
6 2 3 4 6 8 9 rings
6 2 3 5 7 11 12 rings

> <PUBCHEM_HEAVY_ATOM_COUNT>
21

> <PUBCHEM_ATOM_DEF_STEREO_COUNT>
3

> <PUBCHEM_ATOM_UDEF_STEREO_COUNT>
1

> <PUBCHEM_BOND_DEF_STEREO_COUNT>
1

> <PUBCHEM_BOND_UDEF_STEREO_COUNT>
0

> <PUBCHEM_ISOTOPIC_ATOM_COUNT>
0

> <PUBCHEM_COMPONENT_COUNT>
1

> <PUBCHEM_CACTVS_TAUTO_COUNT>
1

> <PUBCHEM_CONFORMER_ID>
009810B60000000D

> <PUBCHEM_MMFF94_ENERGY>
73.4845

> <PUBCHEM_FEATURE_SELFOVERLAP>
30.501

> <PUBCHEM_SHAPE_FINGERPRINT>
10366900 7 18412257368520641435
10863032 1 17822292435368305370
11961588 58 18189048862254310548
12670546 56 16515673434203193317
12716301 132 18264481965590456338
12788726 201 18272377434241543248
12916748 109 18408606980804348269
13464514 151 18341618057982064979
13538477 17 17458614657781728666
14289901 80 14923941237066151021
14790565 3 18409174311356146437
15210252 30 18410863152795378024
15788980 27 12247681569659506477
1601671 61 18410291380725474997
16945 1 17895186676155697878
18186145 218 18339072692668580239
192875 21 13614247009146992858
19862831 5 16415758635096869159
200 152 13614527367484934353
20645477 70 15625942088072099260
20691752 17 17896320229667972871
20832881 197 17774723039581315434
221357 26 17632290169147792537
23402539 116 18411412878237715060
23493267 7 18187088394546946674
23557571 272 17971201558301925914
23559900 14 18410014317371169934
25 1 18411135797271088911
2637199 183 18187650180247433529
2748010 2 18270687605202205190
3286 77 17418090984419512074
3323516 105 18059570269967522695
34934 24 17896036701802506764
4047638 21 17894912936267290572
439807 62 8356242682539792577
474 4 18335702698488646221
495365 180 16916492761952572058
4990 188 17775284945725613751
5104073 3 17894910780325804632
5281201 14 17203602709869984969
59755656 215 18343294848085709159
633830 44 18409727327249860319

> <PUBCHEM_SHAPE_MULTIPOLES>
426.3
9.57
2.31
1.47
7.61
0.41
0.58
-4.5
-2.21
0.71
0.14
-1.05
0
-0.09

> <PUBCHEM_SHAPE_SELFOVERLAP>
866.375

> <PUBCHEM_SHAPE_VOLUME>
246.5

> <PUBCHEM_COORDINATE_TYPE>
2
5
10

$$$$
