15550385
  -OEChem-12071808443D

 40 41  0     1  0  0  0  0  0999 V2000
    1.4746   -2.7679   -1.0108 O   0  0  0  0  0  0  0  0  0  0  0  0
    1.3220    2.6005   -1.1143 O   0  0  0  0  0  0  0  0  0  0  0  0
   -6.0915   -0.5253    0.2782 O   0  0  0  0  0  0  0  0  0  0  0  0
    2.5150    0.6524   -0.9356 N   0  0  0  0  0  0  0  0  0  0  0  0
    0.2942   -0.8210   -1.2681 N   0  0  0  0  0  0  0  0  0  0  0  0
    2.6088   -0.7210   -0.4767 C   0  0  1  0  0  0  0  0  0  0  0  0
    2.8088   -0.8221    1.0264 C   0  0  0  0  0  0  0  0  0  0  0  0
    0.0686    0.5645   -0.9011 C   0  0  2  0  0  0  0  0  0  0  0  0
    4.0480   -0.0646    1.5368 C   0  0  0  0  0  0  0  0  0  0  0  0
    1.4281   -1.5387   -0.9614 C   0  0  0  0  0  0  0  0  0  0  0  0
    1.3453    1.3734   -1.0176 C   0  0  0  0  0  0  0  0  0  0  0  0
   -0.5891    0.7082    0.4614 C   0  0  0  0  0  0  0  0  0  0  0  0
    5.3367   -0.5352    0.8614 C   0  0  0  0  0  0  0  0  0  0  0  0
    3.8673    1.4391    1.3155 C   0  0  0  0  0  0  0  0  0  0  0  0
   -2.0582    0.3785    0.4129 C   0  0  0  0  0  0  0  0  0  0  0  0
   -2.9745    1.3855    0.1470 C   0  0  0  0  0  0  0  0  0  0  0  0
   -2.4725   -0.9268    0.6342 C   0  0  0  0  0  0  0  0  0  0  0  0
   -4.3348    1.0805    0.1013 C   0  0  0  0  0  0  0  0  0  0  0  0
   -3.8329   -1.2319    0.5885 C   0  0  0  0  0  0  0  0  0  0  0  0
   -4.7640   -0.2281    0.3221 C   0  0  0  0  0  0  0  0  0  0  0  0
    3.4769   -1.1398   -0.9993 H   0  0  0  0  0  0  0  0  0  0  0  0
    1.9284   -0.4580    1.5647 H   0  0  0  0  0  0  0  0  0  0  0  0
    2.9051   -1.8802    1.3040 H   0  0  0  0  0  0  0  0  0  0  0  0
   -0.5958    0.9575   -1.6826 H   0  0  0  0  0  0  0  0  0  0  0  0
    4.1272   -0.2526    2.6149 H   0  0  0  0  0  0  0  0  0  0  0  0
    3.3760    1.1394   -1.1561 H   0  0  0  0  0  0  0  0  0  0  0  0
   -0.5050   -1.3459   -1.6104 H   0  0  0  0  0  0  0  0  0  0  0  0
   -0.4704    1.7325    0.8394 H   0  0  0  0  0  0  0  0  0  0  0  0
   -0.1091    0.0709    1.2113 H   0  0  0  0  0  0  0  0  0  0  0  0
    5.3807   -0.2667   -0.1985 H   0  0  0  0  0  0  0  0  0  0  0  0
    5.4451   -1.6216    0.9460 H   0  0  0  0  0  0  0  0  0  0  0  0
    6.2049   -0.0765    1.3475 H   0  0  0  0  0  0  0  0  0  0  0  0
    4.2902    1.8125    0.3808 H   0  0  0  0  0  0  0  0  0  0  0  0
    4.4384    1.9642    2.0932 H   0  0  0  0  0  0  0  0  0  0  0  0
    2.8315    1.7685    1.4413 H   0  0  0  0  0  0  0  0  0  0  0  0
   -2.6502    2.4073   -0.0288 H   0  0  0  0  0  0  0  0  0  0  0  0
   -1.7563   -1.7162    0.8440 H   0  0  0  0  0  0  0  0  0  0  0  0
   -5.0501    1.8715   -0.1078 H   0  0  0  0  0  0  0  0  0  0  0  0
   -4.1610   -2.2531    0.7618 H   0  0  0  0  0  0  0  0  0  0  0  0
   -6.5898    0.2868    0.0823 H   0  0  0  0  0  0  0  0  0  0  0  0
  1 10  2  0  0  0  0
  2 11  2  0  0  0  0
  3 20  1  0  0  0  0
  3 40  1  0  0  0  0
  4  6  1  0  0  0  0
  4 11  1  0  0  0  0
  4 26  1  0  0  0  0
  5  8  1  0  0  0  0
  5 10  1  0  0  0  0
  5 27  1  0  0  0  0
  6  7  1  0  0  0  0
  6 10  1  0  0  0  0
  6 21  1  0  0  0  0
  7  9  1  0  0  0  0
  7 22  1  0  0  0  0
  7 23  1  0  0  0  0
  8 11  1  0  0  0  0
  8 12  1  0  0  0  0
  8 24  1  0  0  0  0
  9 13  1  0  0  0  0
  9 14  1  0  0  0  0
  9 25  1  0  0  0  0
 12 15  1  0  0  0  0
 12 28  1  0  0  0  0
 12 29  1  0  0  0  0
 13 30  1  0  0  0  0
 13 31  1  0  0  0  0
 13 32  1  0  0  0  0
 14 33  1  0  0  0  0
 14 34  1  0  0  0  0
 14 35  1  0  0  0  0
 15 16  2  0  0  0  0
 15 17  1  0  0  0  0
 16 18  1  0  0  0  0
 16 36  1  0  0  0  0
 17 19  2  0  0  0  0
 17 37  1  0  0  0  0
 18 20  2  0  0  0  0
 18 38  1  0  0  0  0
 19 20  1  0  0  0  0
 19 39  1  0  0  0  0
M  END
> <PUBCHEM_COMPOUND_CID>
15550385

> <PUBCHEM_CONFORMER_RMSD>
0.6

> <PUBCHEM_CONFORMER_DIVERSEORDER>
1
18
17
12
11
9
14
16
19
6
8
21
10
13
5
20
7
3
2
15
4
22

> <PUBCHEM_MMFF94_PARTIAL_CHARGES>
23
1 -0.57
10 0.57
11 0.57
12 0.14
15 -0.14
16 -0.15
17 -0.15
18 -0.15
19 -0.15
2 -0.57
20 0.08
26 0.37
27 0.37
3 -0.53
36 0.15
37 0.15
38 0.15
39 0.15
4 -0.73
40 0.45
5 -0.73
6 0.36
8 0.36

> <PUBCHEM_EFFECTIVE_ROTOR_COUNT>
4.8

> <PUBCHEM_PHARMACOPHORE_FEATURES>
8
1 1 acceptor
1 2 acceptor
1 3 donor
1 4 donor
1 5 donor
3 9 13 14 hydrophobe
6 15 16 17 18 19 20 rings
6 4 5 6 8 10 11 rings

> <PUBCHEM_HEAVY_ATOM_COUNT>
20

> <PUBCHEM_ATOM_DEF_STEREO_COUNT>
2

> <PUBCHEM_ATOM_UDEF_STEREO_COUNT>
0

> <PUBCHEM_BOND_DEF_STEREO_COUNT>
0

> <PUBCHEM_BOND_UDEF_STEREO_COUNT>
0

> <PUBCHEM_ISOTOPIC_ATOM_COUNT>
0

> <PUBCHEM_COMPONENT_COUNT>
1

> <PUBCHEM_CACTVS_TAUTO_COUNT>
8

> <PUBCHEM_CONFORMER_ID>
00ED47B100000001

> <PUBCHEM_MMFF94_ENERGY>
68.4673

> <PUBCHEM_FEATURE_SELFOVERLAP>
40.602

> <PUBCHEM_SHAPE_FINGERPRINT>
10498660 4 12175623940982467339
11045977 3 18342452664548289594
11370993 70 18343298158793701403
11796584 16 16008751298929991419
12251169 10 18334293184294752002
12507560 40 17988644034512887262
12633257 1 18113341907614490633
12839892 36 18342171210973016655
13134695 92 14779552309044255518
14178342 30 18267311940974233921
14787075 74 17488731410594914291
14863182 85 18130801048325337654
15375358 24 18341612603426294755
16752209 62 12540959816473582599
17349148 13 18409729573523023957
17834072 14 18412261710136608457
1813 80 15791728568848217854
18222031 100 18333736797320365110
19784866 140 11097844168855324968
20369508 70 17313104172011938281
204376 136 17418087745587013550
20626108 58 18187922949478383801
20645477 70 18261685856276410463
21033648 29 17774142527269309392
21069387 34 17022626407146473873
21304304 249 18261108565116705034
21501925 9 18335423465168430901
21637258 2 16298653998662010632
21859007 373 17604695665923128501
221357 26 10665224861030438787
22224240 67 18130776885203261882
22854114 59 17917709089070479442
23402539 116 18261666009427954893
23557571 272 18335980861529029385
23558518 356 17112412771906635604
23559900 14 18268160763987846039
23590187 302 8862942775210525608
2838139 119 14979665620602295378
345986 75 16951946411116374384
347723 3 10737282437893285020
394222 165 17825405225822498100
427121 178 17561362898521811614
4325135 7 15913317031777711741
465052 167 18113340825325001642
4990 188 8430311355245152608
5104073 3 18200042725008600363
67856867 119 18190180268468066637
9709674 26 18336562559653079015
9981440 41 16812939841720823117
9999458 23 17846491556893115440

> <PUBCHEM_SHAPE_MULTIPOLES>
384.02
10.69
1.97
1.32
6.69
0.03
-0.03
0.89
4.65
-0.69
-0.64
-1.33
-0.02
0.37

> <PUBCHEM_SHAPE_SELFOVERLAP>
802.069

> <PUBCHEM_SHAPE_VOLUME>
216.7

> <PUBCHEM_COORDINATE_TYPE>
2
5
10

$$$$
