5325711
  -OEChem-12071808433D

 24 25  0     1  0  0  0  0  0999 V2000
    1.3015    2.3053    0.5053 O   0  0  0  0  0  0  0  0  0  0  0  0
   -0.4070   -2.7419    0.4055 O   0  0  0  0  0  0  0  0  0  0  0  0
   -0.3742    0.7614    0.0908 N   0  0  0  0  0  0  0  0  0  0  0  0
    1.3234   -1.2270    0.5521 N   0  0  0  0  0  0  0  0  0  0  0  0
   -0.7499   -0.5238   -0.4779 C   0  0  2  0  0  0  0  0  0  0  0  0
   -2.2588   -0.5840   -0.2697 C   0  0  0  0  0  0  0  0  0  0  0  0
   -1.5261    1.6264    0.2801 C   0  0  0  0  0  0  0  0  0  0  0  0
   -2.6719    0.8811   -0.3907 C   0  0  0  0  0  0  0  0  0  0  0  0
    1.9369    0.0187    0.1043 C   0  0  2  0  0  0  0  0  0  0  0  0
    0.9370    1.1515    0.2863 C   0  0  0  0  0  0  0  0  0  0  0  0
    0.0288   -1.6059    0.2350 C   0  0  0  0  0  0  0  0  0  0  0  0
    2.4602   -0.0619   -1.3212 C   0  0  0  0  0  0  0  0  0  0  0  0
   -0.4983   -0.5235   -1.5435 H   0  0  0  0  0  0  0  0  0  0  0  0
   -2.5091   -0.9615    0.7295 H   0  0  0  0  0  0  0  0  0  0  0  0
   -2.7567   -1.2225   -1.0053 H   0  0  0  0  0  0  0  0  0  0  0  0
   -1.3455    2.6164   -0.1485 H   0  0  0  0  0  0  0  0  0  0  0  0
   -1.6884    1.7306    1.3582 H   0  0  0  0  0  0  0  0  0  0  0  0
   -2.7296    1.1605   -1.4497 H   0  0  0  0  0  0  0  0  0  0  0  0
   -3.6401    1.0923    0.0713 H   0  0  0  0  0  0  0  0  0  0  0  0
    2.7720    0.2031    0.7899 H   0  0  0  0  0  0  0  0  0  0  0  0
    1.9213   -1.9166    0.9971 H   0  0  0  0  0  0  0  0  0  0  0  0
    3.1947   -0.8687   -1.4171 H   0  0  0  0  0  0  0  0  0  0  0  0
    1.6665   -0.2528   -2.0489 H   0  0  0  0  0  0  0  0  0  0  0  0
    2.9450    0.8776   -1.6073 H   0  0  0  0  0  0  0  0  0  0  0  0
  1 10  2  0  0  0  0
  2 11  2  0  0  0  0
  3  5  1  0  0  0  0
  3  7  1  0  0  0  0
  3 10  1  0  0  0  0
  4  9  1  0  0  0  0
  4 11  1  0  0  0  0
  4 21  1  0  0  0  0
  5  6  1  0  0  0  0
  5 11  1  0  0  0  0
  5 13  1  0  0  0  0
  6  8  1  0  0  0  0
  6 14  1  0  0  0  0
  6 15  1  0  0  0  0
  7  8  1  0  0  0  0
  7 16  1  0  0  0  0
  7 17  1  0  0  0  0
  8 18  1  0  0  0  0
  8 19  1  0  0  0  0
  9 10  1  0  0  0  0
  9 12  1  0  0  0  0
  9 20  1  0  0  0  0
 12 22  1  0  0  0  0
 12 23  1  0  0  0  0
 12 24  1  0  0  0  0
M  END
> <PUBCHEM_COMPOUND_CID>
5325711

> <PUBCHEM_CONFORMER_RMSD>
0.4

> <PUBCHEM_CONFORMER_DIVERSEORDER>
1

> <PUBCHEM_MMFF94_PARTIAL_CHARGES>
10
1 -0.57
10 0.57
11 0.57
2 -0.57
21 0.37
3 -0.66
4 -0.73
5 0.36
7 0.3
9 0.36

> <PUBCHEM_EFFECTIVE_ROTOR_COUNT>
1

> <PUBCHEM_PHARMACOPHORE_FEATURES>
5
1 1 acceptor
1 2 acceptor
1 4 donor
5 3 5 6 7 8 rings
6 3 4 5 9 10 11 rings

> <PUBCHEM_HEAVY_ATOM_COUNT>
12

> <PUBCHEM_ATOM_DEF_STEREO_COUNT>
2

> <PUBCHEM_ATOM_UDEF_STEREO_COUNT>
0

> <PUBCHEM_BOND_DEF_STEREO_COUNT>
0

> <PUBCHEM_BOND_UDEF_STEREO_COUNT>
0

> <PUBCHEM_ISOTOPIC_ATOM_COUNT>
0

> <PUBCHEM_COMPONENT_COUNT>
1

> <PUBCHEM_CACTVS_TAUTO_COUNT>
2

> <PUBCHEM_CONFORMER_ID>
0051438F00000001

> <PUBCHEM_MMFF94_ENERGY>
37.9414

> <PUBCHEM_FEATURE_SELFOVERLAP>
25.467

> <PUBCHEM_SHAPE_FINGERPRINT>
10353120 184 18272381832007881589
11206711 2 18410009927413102509
12423570 1 9184526815105501550
12524768 44 18054790855913877925
13380535 76 18126271189304868016
13380536 305 18411139134313121117
15775835 57 18335424530130552893
161256 15 17834693959776854994
16945 1 18412824689885729919
18185500 45 18051684447855394803
193761 8 18122057873594838786
20588541 1 17691684906352773529
20645476 183 17967829248902641230
20871998 184 17189813983300695212
21040471 1 18335696186780187722
22802520 49 18054244385966262236
23552423 10 18410568513658807621
23559900 14 18341622504122179086
241688 4 17982735168888947794
2748010 2 17834677471370921510
4369600 1 18270122305685005404
5084963 1 18131913771309172489
66348 1 18409726279029848385

> <PUBCHEM_SHAPE_MULTIPOLES>
225.25
3.2
2.29
0.85
0.58
0.54
-0.19
-0.67
-0.83
-0.04
0.61
-0.34
0
-0.01

> <PUBCHEM_SHAPE_SELFOVERLAP>
471.313

> <PUBCHEM_SHAPE_VOLUME>
128

> <PUBCHEM_COORDINATE_TYPE>
2
5
10

$$$$
