11085982
  -OEChem-12071808383D

 31 32  0     1  0  0  0  0  0999 V2000
    1.6023   -0.1756   -0.9954 O   0  0  0  0  0  0  0  0  0  0  0  0
    3.8149    1.6190    0.1255 O   0  0  0  0  0  0  0  0  0  0  0  0
    2.3216   -2.8548   -0.6008 O   0  0  0  0  0  0  0  0  0  0  0  0
   -1.1690    2.8169   -0.3791 O   0  0  0  0  0  0  0  0  0  0  0  0
   -4.3542   -0.4442    0.2276 O   0  0  0  0  0  0  0  0  0  0  0  0
   -0.4496    0.6043   -0.1853 N   0  0  0  0  0  0  0  0  0  0  0  0
   -2.7469    1.1804   -0.0755 N   0  0  0  0  0  0  0  0  0  0  0  0
    3.0347    0.5906    0.7314 C   0  0  1  0  0  0  0  0  0  0  0  0
    0.9443    0.9090   -0.3253 C   0  0  1  0  0  0  0  0  0  0  0  0
    1.6418    1.1059    1.0108 C   0  0  0  0  0  0  0  0  0  0  0  0
    2.7929   -0.5327   -0.2671 C   0  0  1  0  0  0  0  0  0  0  0  0
    2.5461   -1.8782    0.4028 C   0  0  0  0  0  0  0  0  0  0  0  0
   -0.8232   -0.7217   -0.0078 C   0  0  0  0  0  0  0  0  0  0  0  0
   -1.4274    1.6213   -0.2251 C   0  0  0  0  0  0  0  0  0  0  0  0
   -2.0868   -1.1402    0.1350 C   0  0  0  0  0  0  0  0  0  0  0  0
   -3.1744   -0.1265    0.1033 C   0  0  0  0  0  0  0  0  0  0  0  0
   -2.4671   -2.5735    0.3250 C   0  0  0  0  0  0  0  0  0  0  0  0
    3.5642    0.2617    1.6305 H   1  0  0  0  0  0  0  0  0  0  0  0
    1.0684    1.8012   -0.9505 H   0  0  0  0  0  0  0  0  0  0  0  0
    1.1736    0.4975    1.7940 H   0  0  0  0  0  0  0  0  0  0  0  0
    1.6068    2.1518    1.3316 H   0  0  0  0  0  0  0  0  0  0  0  0
    3.6021   -0.6189   -1.0007 H   0  0  0  0  0  0  0  0  0  0  0  0
    1.6944   -1.8679    1.0866 H   0  0  0  0  0  0  0  0  0  0  0  0
    3.4318   -2.1785    0.9729 H   0  0  0  0  0  0  0  0  0  0  0  0
   -0.0422   -1.4642    0.0072 H   0  0  0  0  0  0  0  0  0  0  0  0
    3.8971    2.3407    0.7720 H   0  0  0  0  0  0  0  0  0  0  0  0
   -3.4685    1.8956   -0.1013 H   0  0  0  0  0  0  0  0  0  0  0  0
    2.1811   -3.7037   -0.1478 H   0  0  0  0  0  0  0  0  0  0  0  0
   -2.9925   -2.7067    1.2763 H   0  0  0  0  0  0  0  0  0  0  0  0
   -1.5922   -3.2321    0.3338 H   0  0  0  0  0  0  0  0  0  0  0  0
   -3.1245   -2.9052   -0.4852 H   0  0  0  0  0  0  0  0  0  0  0  0
  1  9  1  0  0  0  0
  1 11  1  0  0  0  0
  2  8  1  0  0  0  0
  2 26  1  0  0  0  0
  3 12  1  0  0  0  0
  3 28  1  0  0  0  0
  4 14  2  0  0  0  0
  5 16  2  0  0  0  0
  6  9  1  0  0  0  0
  6 13  1  0  0  0  0
  6 14  1  0  0  0  0
  7 14  1  0  0  0  0
  7 16  1  0  0  0  0
  7 27  1  0  0  0  0
  8 10  1  0  0  0  0
  8 11  1  0  0  0  0
  8 18  1  0  0  0  0
  9 10  1  0  0  0  0
  9 19  1  0  0  0  0
 10 20  1  0  0  0  0
 10 21  1  0  0  0  0
 11 12  1  0  0  0  0
 11 22  1  0  0  0  0
 12 23  1  0  0  0  0
 12 24  1  0  0  0  0
 13 15  2  0  0  0  0
 13 25  1  0  0  0  0
 15 16  1  0  0  0  0
 15 17  1  0  0  0  0
 17 29  1  0  0  0  0
 17 30  1  0  0  0  0
 17 31  1  0  0  0  0
M  ISO  1  18   2
M  END
> <PUBCHEM_COMPOUND_CID>
11085982

> <PUBCHEM_CONFORMER_RMSD>
0.6

> <PUBCHEM_CONFORMER_DIVERSEORDER>
1
9
14
11
6
7
8
13
15
4
12
10
2
5
3

> <PUBCHEM_MMFF94_PARTIAL_CHARGES>
20
1 -0.56
11 0.28
12 0.28
13 -0.04
14 0.69
15 -0.12
16 0.62
17 0.14
2 -0.68
25 0.15
26 0.4
27 0.37
28 0.4
3 -0.68
4 -0.57
5 -0.57
6 -0.47
7 -0.49
8 0.28
9 0.58

> <PUBCHEM_EFFECTIVE_ROTOR_COUNT>
3

> <PUBCHEM_PHARMACOPHORE_FEATURES>
10
1 1 acceptor
1 2 acceptor
1 2 donor
1 3 acceptor
1 3 donor
1 4 acceptor
1 5 acceptor
1 7 donor
5 1 8 9 10 11 rings
6 6 7 13 14 15 16 rings

> <PUBCHEM_HEAVY_ATOM_COUNT>
17

> <PUBCHEM_ATOM_DEF_STEREO_COUNT>
3

> <PUBCHEM_ATOM_UDEF_STEREO_COUNT>
0

> <PUBCHEM_BOND_DEF_STEREO_COUNT>
0

> <PUBCHEM_BOND_UDEF_STEREO_COUNT>
0

> <PUBCHEM_ISOTOPIC_ATOM_COUNT>
1

> <PUBCHEM_COMPONENT_COUNT>
1

> <PUBCHEM_CACTVS_TAUTO_COUNT>
3

> <PUBCHEM_CONFORMER_ID>
00A9289E00000001

> <PUBCHEM_MMFF94_ENERGY>
40.4297

> <PUBCHEM_FEATURE_SELFOVERLAP>
50.753

> <PUBCHEM_SHAPE_FINGERPRINT>
10366900 7 18130217267664368857
10608611 8 18411413973544292904
10616163 171 18337955713356485810
10618630 7 18334013904077932655
10922523 26 18260547784110536559
10967382 1 18410293635503696783
12382932 28 18337953501363763635
12500047 106 18263358088602426460
12553582 1 17975429215071403723
12932764 1 17632002113711420188
13140716 1 18122903393610087457
13380535 21 18411987940225679760
14144814 61 18410012113361434817
14178342 30 18195803187996136619
14223421 5 18411697682009167770
14252887 29 18335993046593568667
15219456 202 18342172241664512072
15375358 24 18335976566645713563
15375462 6 18411417315113108916
15442244 35 18194964045880734946
16945 1 18409450288594694373
17804303 29 18267309720465650894
17834074 16 18411700959000694810
19049666 15 18198054790146185584
19784866 170 18339360889327456024
20510252 161 18341048528212898361
20645477 70 18343297042091577263
21501502 16 18341049614512186568
23184049 29 18337667495344138186
2334 1 17833270100829788789
23402539 116 18115295817249990288
23463225 33 18408605872512862367
23559900 14 18410851032539320468
2748010 2 18191302676481685981
34934 24 18337666520518437247
58051976 378 18410855495036766972
69090 78 18343295985919869327
7364860 26 18341895165156305734
81228 2 18260271824046316449
8809292 202 18339083670584097338
9709674 26 18411419475328937854

> <PUBCHEM_SHAPE_MULTIPOLES>
310.54
6.33
2.7
0.79
1.02
0.77
0.04
0.85
0.67
-0.06
-0.18
-0.33
0
0.6

> <PUBCHEM_SHAPE_SELFOVERLAP>
650.982

> <PUBCHEM_SHAPE_VOLUME>
176.1

> <PUBCHEM_COORDINATE_TYPE>
2
5
10

$$$$
