5321893
  -OEChem-12071808403D

 47 46  0     1  0  0  0  0  0999 V2000
   -4.7949   -0.4292    0.6857 O   0  0  0  0  0  0  0  0  0  0  0  0
   -3.1651    0.5764    1.9134 O   0  0  0  0  0  0  0  0  0  0  0  0
    1.0260   -0.8425    0.1539 C   0  0  2  0  0  0  0  0  0  0  0  0
    0.0937   -1.4578   -0.9176 C   0  0  0  0  0  0  0  0  0  0  0  0
   -1.4025   -1.0996   -0.8066 C   0  0  1  0  0  0  0  0  0  0  0  0
    2.4786   -1.2829   -0.1487 C   0  0  0  0  0  0  0  0  0  0  0  0
    3.5912   -0.6577    0.7272 C   0  0  2  0  0  0  0  0  0  0  0  0
   -1.7210    0.4148   -0.7802 C   0  0  0  0  0  0  0  0  0  0  0  0
    3.5238    0.8841    0.7209 C   0  0  0  0  0  0  0  0  0  0  0  0
    0.5956   -1.2388    1.5686 C   0  0  0  0  0  0  0  0  0  0  0  0
   -3.1811    0.8245   -0.5101 C   0  0  2  0  0  0  0  0  0  0  0  0
   -2.1861   -1.8241   -1.9090 C   0  0  0  0  0  0  0  0  0  0  0  0
    4.9503   -1.1681    0.2303 C   0  0  0  0  0  0  0  0  0  0  0  0
    3.6659    1.5565   -0.6493 C   0  0  0  0  0  0  0  0  0  0  0  0
   -3.3193    2.3493   -0.5101 C   0  0  0  0  0  0  0  0  0  0  0  0
   -3.6770    0.3255    0.8313 C   0  0  0  0  0  0  0  0  0  0  0  0
    3.5217    3.0696   -0.5997 C   0  0  0  0  0  0  0  0  0  0  0  0
    0.9686    0.2460    0.0629 H   0  0  0  0  0  0  0  0  0  0  0  0
    0.1975   -2.5510   -0.8890 H   0  0  0  0  0  0  0  0  0  0  0  0
    0.4479   -1.1423   -1.9084 H   0  0  0  0  0  0  0  0  0  0  0  0
   -1.7609   -1.5263    0.1386 H   0  0  0  0  0  0  0  0  0  0  0  0
    2.6970   -1.0788   -1.2051 H   0  0  0  0  0  0  0  0  0  0  0  0
    2.5388   -2.3754   -0.0454 H   0  0  0  0  0  0  0  0  0  0  0  0
    3.4689   -0.9984    1.7622 H   0  0  0  0  0  0  0  0  0  0  0  0
   -1.4007    0.8525   -1.7349 H   0  0  0  0  0  0  0  0  0  0  0  0
   -1.1030    0.8873   -0.0078 H   0  0  0  0  0  0  0  0  0  0  0  0
    4.3241    1.2625    1.3712 H   0  0  0  0  0  0  0  0  0  0  0  0
    2.5915    1.2142    1.1935 H   0  0  0  0  0  0  0  0  0  0  0  0
    1.2642   -0.8119    2.3220 H   0  0  0  0  0  0  0  0  0  0  0  0
   -0.4080   -0.8709    1.8007 H   0  0  0  0  0  0  0  0  0  0  0  0
    0.5973   -2.3269    1.6916 H   0  0  0  0  0  0  0  0  0  0  0  0
   -3.8239    0.4280   -1.3041 H   0  0  0  0  0  0  0  0  0  0  0  0
   -1.9437   -1.4157   -2.8958 H   0  0  0  0  0  0  0  0  0  0  0  0
   -3.2658   -1.7350   -1.7576 H   0  0  0  0  0  0  0  0  0  0  0  0
   -1.9498   -2.8938   -1.9180 H   0  0  0  0  0  0  0  0  0  0  0  0
    5.0171   -2.2551    0.3486 H   0  0  0  0  0  0  0  0  0  0  0  0
    5.7662   -0.7205    0.8074 H   0  0  0  0  0  0  0  0  0  0  0  0
    5.1144   -0.9397   -0.8275 H   0  0  0  0  0  0  0  0  0  0  0  0
    4.6443    1.3185   -1.0805 H   0  0  0  0  0  0  0  0  0  0  0  0
    2.9092    1.1720   -1.3409 H   0  0  0  0  0  0  0  0  0  0  0  0
   -4.3554    2.6461   -0.3128 H   0  0  0  0  0  0  0  0  0  0  0  0
   -3.0275    2.7652   -1.4801 H   0  0  0  0  0  0  0  0  0  0  0  0
   -2.6917    2.8107    0.2606 H   0  0  0  0  0  0  0  0  0  0  0  0
    2.5363    3.3550   -0.2181 H   0  0  0  0  0  0  0  0  0  0  0  0
    4.2833    3.5128    0.0495 H   0  0  0  0  0  0  0  0  0  0  0  0
    3.6364    3.4965   -1.6010 H   0  0  0  0  0  0  0  0  0  0  0  0
   -5.1335   -0.7516    1.5480 H   0  0  0  0  0  0  0  0  0  0  0  0
  1 16  1  0  0  0  0
  1 47  1  0  0  0  0
  2 16  2  0  0  0  0
  3  4  1  0  0  0  0
  3  6  1  0  0  0  0
  3 10  1  0  0  0  0
  3 18  1  0  0  0  0
  4  5  1  0  0  0  0
  4 19  1  0  0  0  0
  4 20  1  0  0  0  0
  5  8  1  0  0  0  0
  5 12  1  0  0  0  0
  5 21  1  0  0  0  0
  6  7  1  0  0  0  0
  6 22  1  0  0  0  0
  6 23  1  0  0  0  0
  7  9  1  0  0  0  0
  7 13  1  0  0  0  0
  7 24  1  0  0  0  0
  8 11  1  0  0  0  0
  8 25  1  0  0  0  0
  8 26  1  0  0  0  0
  9 14  1  0  0  0  0
  9 27  1  0  0  0  0
  9 28  1  0  0  0  0
 10 29  1  0  0  0  0
 10 30  1  0  0  0  0
 10 31  1  0  0  0  0
 11 15  1  0  0  0  0
 11 16  1  0  0  0  0
 11 32  1  0  0  0  0
 12 33  1  0  0  0  0
 12 34  1  0  0  0  0
 12 35  1  0  0  0  0
 13 36  1  0  0  0  0
 13 37  1  0  0  0  0
 13 38  1  0  0  0  0
 14 17  1  0  0  0  0
 14 39  1  0  0  0  0
 14 40  1  0  0  0  0
 15 41  1  0  0  0  0
 15 42  1  0  0  0  0
 15 43  1  0  0  0  0
 17 44  1  0  0  0  0
 17 45  1  0  0  0  0
 17 46  1  0  0  0  0
M  END
> <PUBCHEM_COMPOUND_CID>
5321893

> <PUBCHEM_CONFORMER_RMSD>
0.8

> <PUBCHEM_CONFORMER_DIVERSEORDER>
1
173
45
177
299
327
320
27
256
17
29
208
71
132
233
172
318
202
117
294
137
106
121
102
88
41
199
268
216
115
215
300
8
286
54
157
313
99
30
198
169
167
81
304
108
97
236
196
293
251
227
104
323
3
329
264
231
245
301
114
272
161
46
55
189
319
232
273
214
207
280
223
43
64
305
146
188
42
252
86
295
56
315
302
160
165
212
19
335
292
306
308
171
89
333
112
25
247
254
10
142
4
51
262
226
253
156
224
5
309
147
15
162
164
326
75
217
205
269
28
237
170
267
332
20
175
279
152
243
297
248
249
155
277
270
66
38
203
128
244
193
281
265
228
334
122
312
82
95
123
250
322
130
101
143
176
136
168
40
288
135
32
63
23
83
125
220
314
166
9
260
107
271
73
241
80
261
7
242
163
229
26
50
325
298
70
219
93
18
109
118
303
12
154
77
330
263
218
290
158
35
274
181
307
186
180
22
105
87
321
266
257
85
201
284
103
240
283
296
58
111
191
235
2
200
174
31
57
239
116
324
133
275
52
192
140
204
182
124
159
61
59
184
6
221
139
225
126
259
141
222
211
317
282
238
331
16
210
96
234
230
92
144
149
76
39
69
190
119
153
310
287
78
37
311
65
183
213
185
72
150
127
131
98
60
246
187
34
285
195
100
90
49
53
151
197
316
194
209
145
94
84
14
278
258
33
129
79
120
113
48
44
91
206
11
110
178
36
74
179
134
255
24
13
148
21
62
68
328
291
138
67
289
276
47

> <PUBCHEM_MMFF94_PARTIAL_CHARGES>
5
1 -0.65
11 0.06
16 0.66
2 -0.57
47 0.5

> <PUBCHEM_EFFECTIVE_ROTOR_COUNT>
9

> <PUBCHEM_PHARMACOPHORE_FEATURES>
8
1 1 acceptor
1 10 hydrophobe
1 12 hydrophobe
1 13 hydrophobe
1 15 hydrophobe
1 17 hydrophobe
1 2 acceptor
3 1 2 16 anion

> <PUBCHEM_HEAVY_ATOM_COUNT>
17

> <PUBCHEM_ATOM_DEF_STEREO_COUNT>
0

> <PUBCHEM_ATOM_UDEF_STEREO_COUNT>
4

> <PUBCHEM_BOND_DEF_STEREO_COUNT>
0

> <PUBCHEM_BOND_UDEF_STEREO_COUNT>
0

> <PUBCHEM_ISOTOPIC_ATOM_COUNT>
0

> <PUBCHEM_COMPONENT_COUNT>
1

> <PUBCHEM_CACTVS_TAUTO_COUNT>
1

> <PUBCHEM_CONFORMER_ID>
005134A500000001

> <PUBCHEM_MMFF94_ENERGY>
23.4415

> <PUBCHEM_FEATURE_SELFOVERLAP>
40.656

> <PUBCHEM_SHAPE_FINGERPRINT>
10366900 7 17240765042820025144
11045977 3 17676211259981819945
12173636 292 17346600755477035391
12403259 118 18336818702432500113
13583140 156 17895747388214945303
14026960 21 18335141994260081261
14123260 362 17846223279696705969
14251764 38 18336828568125899093
14787075 74 18189338034086735235
14957384 54 18263630776002294077
15295992 7 18040438798030563120
17834072 14 7925913685889735067
17834072 32 18269269067608998469
1798214 20 8718827578497307896
18186145 218 17989205911009620166
200 152 10881408633575006467
21033650 10 15553903129944533922
21503847 285 18261107453130917164
21652331 79 18336265725277121565
21864079 5 18335132116167700804
22485316 2 10159692499774626586
27216 239 18337389332277888101
312423 11 18341043137960318214
474 4 18261383503458386020
49207404 50 17822018639571573880
53777708 50 18269547411776168014
633830 44 18041272206179773814

> <PUBCHEM_SHAPE_MULTIPOLES>
338.11
9.79
2.54
1.47
1.44
1.88
0.18
2.98
1.54
1.46
-0.88
-1.1
-0.42
-1.08

> <PUBCHEM_SHAPE_SELFOVERLAP>
627.751

> <PUBCHEM_SHAPE_VOLUME>
214

> <PUBCHEM_COORDINATE_TYPE>
2
5
10

$$$$
