105563
  -OEChem-12071808583D

 52 51  0     1  0  0  0  0  0999 V2000
    5.0060    0.1640    0.1348 O   0  0  0  0  0  0  0  0  0  0  0  0
    3.8412   -1.7838   -0.2890 O   0  0  0  0  0  0  0  0  0  0  0  0
    7.3710    1.4231   -0.7670 O   0  0  0  0  0  0  0  0  0  0  0  0
    9.7976    0.6320    0.3165 O   0  0  0  0  0  0  0  0  0  0  0  0
   -3.7247   -0.3435   -0.0796 C   0  0  0  0  0  0  0  0  0  0  0  0
   -2.4116    0.4239    0.1026 C   0  0  0  0  0  0  0  0  0  0  0  0
   -5.0069    0.4824    0.0631 C   0  0  0  0  0  0  0  0  0  0  0  0
   -1.1690   -0.4638    0.0103 C   0  0  0  0  0  0  0  0  0  0  0  0
   -6.2857   -0.3480   -0.0736 C   0  0  0  0  0  0  0  0  0  0  0  0
    0.1131    0.3668    0.1082 C   0  0  0  0  0  0  0  0  0  0  0  0
   -7.5313    0.5305    0.0694 C   0  0  0  0  0  0  0  0  0  0  0  0
   -8.8434   -0.2536   -0.0248 C   0  0  0  0  0  0  0  0  0  0  0  0
    1.3579   -0.5160   -0.0212 C   0  0  0  0  0  0  0  0  0  0  0  0
  -10.0874    0.6327    0.0447 C   0  0  0  0  0  0  0  0  0  0  0  0
    2.6535    0.2804    0.1021 C   0  0  0  0  0  0  0  0  0  0  0  0
  -11.3620   -0.1935   -0.0400 C   0  0  0  0  0  0  0  0  0  0  0  0
    3.8806   -0.5851   -0.0437 C   0  0  0  0  0  0  0  0  0  0  0  0
    6.2430   -0.5460    0.0183 C   0  0  0  0  0  0  0  0  0  0  0  0
    7.4104    0.4090    0.2398 C   0  0  1  0  0  0  0  0  0  0  0  0
    8.7478   -0.3113    0.1291 C   0  0  0  0  0  0  0  0  0  0  0  0
   -3.7207   -0.8188   -1.0688 H   0  0  0  0  0  0  0  0  0  0  0  0
   -3.7540   -1.1595    0.6539 H   0  0  0  0  0  0  0  0  0  0  0  0
   -2.4230    0.9277    1.0769 H   0  0  0  0  0  0  0  0  0  0  0  0
   -2.3568    1.2111   -0.6596 H   0  0  0  0  0  0  0  0  0  0  0  0
   -5.0017    0.9791    1.0412 H   0  0  0  0  0  0  0  0  0  0  0  0
   -5.0037    1.2756   -0.6945 H   0  0  0  0  0  0  0  0  0  0  0  0
   -1.1908   -1.2115    0.8121 H   0  0  0  0  0  0  0  0  0  0  0  0
   -1.1804   -1.0087   -0.9413 H   0  0  0  0  0  0  0  0  0  0  0  0
   -6.2982   -0.8484   -1.0491 H   0  0  0  0  0  0  0  0  0  0  0  0
   -6.2984   -1.1316    0.6933 H   0  0  0  0  0  0  0  0  0  0  0  0
    0.1356    0.8957    1.0686 H   0  0  0  0  0  0  0  0  0  0  0  0
    0.1230    1.1278   -0.6814 H   0  0  0  0  0  0  0  0  0  0  0  0
   -7.4989    1.0550    1.0324 H   0  0  0  0  0  0  0  0  0  0  0  0
   -7.5179    1.3013   -0.7113 H   0  0  0  0  0  0  0  0  0  0  0  0
   -8.8764   -0.9924    0.7856 H   0  0  0  0  0  0  0  0  0  0  0  0
   -8.8563   -0.8168   -0.9663 H   0  0  0  0  0  0  0  0  0  0  0  0
    1.3362   -1.0345   -0.9882 H   0  0  0  0  0  0  0  0  0  0  0  0
    1.3348   -1.2959    0.7507 H   0  0  0  0  0  0  0  0  0  0  0  0
  -10.0862    1.2004    0.9823 H   0  0  0  0  0  0  0  0  0  0  0  0
  -10.0719    1.3594   -0.7757 H   0  0  0  0  0  0  0  0  0  0  0  0
    2.6887    1.0514   -0.6756 H   0  0  0  0  0  0  0  0  0  0  0  0
    2.6928    0.7651    1.0842 H   0  0  0  0  0  0  0  0  0  0  0  0
  -11.4214   -0.9090    0.7864 H   0  0  0  0  0  0  0  0  0  0  0  0
  -11.4068   -0.7504   -0.9813 H   0  0  0  0  0  0  0  0  0  0  0  0
  -12.2397    0.4583    0.0112 H   0  0  0  0  0  0  0  0  0  0  0  0
    6.2965   -0.9813   -0.9871 H   0  0  0  0  0  0  0  0  0  0  0  0
    6.2689   -1.3489    0.7642 H   0  0  0  0  0  0  0  0  0  0  0  0
    7.3189    0.9260    1.2008 H   0  0  0  0  0  0  0  0  0  0  0  0
    8.8771   -0.7563   -0.8631 H   0  0  0  0  0  0  0  0  0  0  0  0
    8.8384   -1.0922    0.8906 H   0  0  0  0  0  0  0  0  0  0  0  0
    7.4427    0.9888   -1.6342 H   0  0  0  0  0  0  0  0  0  0  0  0
   10.6353    0.1439    0.2422 H   0  0  0  0  0  0  0  0  0  0  0  0
  1 17  1  0  0  0  0
  1 18  1  0  0  0  0
  2 17  2  0  0  0  0
  3 19  1  0  0  0  0
  3 51  1  0  0  0  0
  4 20  1  0  0  0  0
  4 52  1  0  0  0  0
  5  6  1  0  0  0  0
  5  7  1  0  0  0  0
  5 21  1  0  0  0  0
  5 22  1  0  0  0  0
  6  8  1  0  0  0  0
  6 23  1  0  0  0  0
  6 24  1  0  0  0  0
  7  9  1  0  0  0  0
  7 25  1  0  0  0  0
  7 26  1  0  0  0  0
  8 10  1  0  0  0  0
  8 27  1  0  0  0  0
  8 28  1  0  0  0  0
  9 11  1  0  0  0  0
  9 29  1  0  0  0  0
  9 30  1  0  0  0  0
 10 13  1  0  0  0  0
 10 31  1  0  0  0  0
 10 32  1  0  0  0  0
 11 12  1  0  0  0  0
 11 33  1  0  0  0  0
 11 34  1  0  0  0  0
 12 14  1  0  0  0  0
 12 35  1  0  0  0  0
 12 36  1  0  0  0  0
 13 15  1  0  0  0  0
 13 37  1  0  0  0  0
 13 38  1  0  0  0  0
 14 16  1  0  0  0  0
 14 39  1  0  0  0  0
 14 40  1  0  0  0  0
 15 17  1  0  0  0  0
 15 41  1  0  0  0  0
 15 42  1  0  0  0  0
 16 43  1  0  0  0  0
 16 44  1  0  0  0  0
 16 45  1  0  0  0  0
 18 19  1  0  0  0  0
 18 46  1  0  0  0  0
 18 47  1  0  0  0  0
 19 20  1  0  0  0  0
 19 48  1  0  0  0  0
 20 49  1  0  0  0  0
 20 50  1  0  0  0  0
M  END
> <PUBCHEM_COMPOUND_CID>
105563

> <PUBCHEM_CONFORMER_RMSD>
1.2

> <PUBCHEM_CONFORMER_DIVERSEORDER>
1
16
30
43
31
87
78
67
144
82
131
150
28
5
89
132
115
139
20
100
91
127
64
21
119
60
47
10
106
83
63
41
68
72
7
19
3
118
77
93
97
13
117
146
101
74
66
121
54
102
45
49
114
111
94
73
85
61
84
57
88
18
15
24
58
92
116
110
137
36
70
120
136
108
22
143
51
141
129
65
40
12
76
125
138
25
103
142
75
29
149
98
133
99
81
69
112
56
130
113
107
17
95
122
134
62
37
39
27
79
55
135
147
26
90
33
38
126
9
53
35
104
124
4
48
14
96
23
128
34
140
151
71
59
32
44
6
86
123
46
80
11
8
2
145
148
52
105
50
109
42

> <PUBCHEM_MMFF94_PARTIAL_CHARGES>
11
1 -0.43
15 0.06
17 0.66
18 0.28
19 0.28
2 -0.57
20 0.28
3 -0.68
4 -0.68
51 0.4
52 0.4

> <PUBCHEM_EFFECTIVE_ROTOR_COUNT>
15

> <PUBCHEM_PHARMACOPHORE_FEATURES>
6
1 16 hydrophobe
1 2 acceptor
1 3 acceptor
1 3 donor
1 4 acceptor
1 4 donor

> <PUBCHEM_HEAVY_ATOM_COUNT>
20

> <PUBCHEM_ATOM_DEF_STEREO_COUNT>
0

> <PUBCHEM_ATOM_UDEF_STEREO_COUNT>
1

> <PUBCHEM_BOND_DEF_STEREO_COUNT>
0

> <PUBCHEM_BOND_UDEF_STEREO_COUNT>
0

> <PUBCHEM_ISOTOPIC_ATOM_COUNT>
0

> <PUBCHEM_COMPONENT_COUNT>
1

> <PUBCHEM_CACTVS_TAUTO_COUNT>
1

> <PUBCHEM_CONFORMER_ID>
00019C5B00000001

> <PUBCHEM_MMFF94_ENERGY>
9.2468

> <PUBCHEM_FEATURE_SELFOVERLAP>
30.456

> <PUBCHEM_SHAPE_FINGERPRINT>
11315181 36 18272655645917886275
11638347 137 16660358161445552026
14123256 10 18059856164644772952
14251764 18 18131354094078606921
14251764 46 18410573985156725899
14251920 1 18410855455833194506
14344974 52 17274814800703287995
15061470 23 18335699430325047773
15510794 2 18186243926952290315
155225 1 18341612651430856536
16120349 18 18335984246074197348
18335252 98 18409448059738549047
20812841 46 17022901272923370724
21150785 3 18272932721661272691
21362267 2 18114732841448801245
21362267 313 18115581522911860825
22224240 67 17167581596220388210
232437 2 18410573981067772743
23521765 1 18341894090834051075
23581129 1 18409448085244608521
246663 6 11024108754443666306
28498 318 9871753485735653720
33684 2 18410573985151451147
4325135 7 18343021094684833892
67123 10 18410011040136555851
8209 1 18410855460128161795

> <PUBCHEM_SHAPE_MULTIPOLES>
388.11
41.89
0.97
0.63
34.64
0.09
-0.01
-5.17
0.4
-1
-0.08
-0.13
-0.03
-0.2

> <PUBCHEM_SHAPE_SELFOVERLAP>
713.97

> <PUBCHEM_SHAPE_VOLUME>
245.2

> <PUBCHEM_COORDINATE_TYPE>
2
5
10

$$$$
