12086127
  -OEChem-12071808443D

 35 35  0     1  0  0  0  0  0999 V2000
   -0.9010   -2.3486    0.0788 O   0  0  0  0  0  0  0  0  0  0  0  0
    1.4827    2.3662   -0.2618 O   0  0  0  0  0  0  0  0  0  0  0  0
   -0.4190    1.1190    0.0928 N   0  0  0  0  0  0  0  0  0  0  0  0
    1.0276   -1.0939    0.0151 N   0  0  0  0  0  0  0  0  0  0  0  0
   -1.0187   -0.0239    0.7658 C   0  0  1  0  0  0  0  0  0  0  0  0
   -2.5232   -0.0634    0.5513 C   0  0  2  0  0  0  0  0  0  0  0  0
    1.7352    0.0786    0.5081 C   0  0  1  0  0  0  0  0  0  0  0  0
    3.1746    0.1000    0.0197 C   0  0  0  0  0  0  0  0  0  0  0  0
   -0.3330   -1.2680    0.2175 C   0  0  0  0  0  0  0  0  0  0  0  0
    0.9548    1.2966    0.0331 C   0  0  0  0  0  0  0  0  0  0  0  0
   -2.8440   -0.1970   -0.9512 C   0  0  0  0  0  0  0  0  0  0  0  0
   -3.1769    1.1784    1.1679 C   0  0  0  0  0  0  0  0  0  0  0  0
    3.9435   -1.1156    0.5398 C   0  0  0  0  0  0  0  0  0  0  0  0
    3.2297    0.1494   -1.5081 C   0  0  0  0  0  0  0  0  0  0  0  0
   -4.3324   -0.1777   -1.2689 C   0  0  0  0  0  0  0  0  0  0  0  0
   -0.7786    0.0487    1.8338 H   0  0  0  0  0  0  0  0  0  0  0  0
   -2.9309   -0.9427    1.0678 H   0  0  0  0  0  0  0  0  0  0  0  0
    1.6972    0.0594    1.6044 H   0  0  0  0  0  0  0  0  0  0  0  0
    3.6693    1.0006    0.4061 H   0  0  0  0  0  0  0  0  0  0  0  0
   -0.9947    1.9186   -0.1509 H   0  0  0  0  0  0  0  0  0  0  0  0
    1.5509   -1.9065   -0.2941 H   0  0  0  0  0  0  0  0  0  0  0  0
   -2.4423   -1.1315   -1.3549 H   0  0  0  0  0  0  0  0  0  0  0  0
   -2.3759    0.6128   -1.5235 H   0  0  0  0  0  0  0  0  0  0  0  0
   -2.8130    1.3480    2.1871 H   0  0  0  0  0  0  0  0  0  0  0  0
   -4.2624    1.0490    1.2364 H   0  0  0  0  0  0  0  0  0  0  0  0
   -2.9907    2.0839    0.5821 H   0  0  0  0  0  0  0  0  0  0  0  0
    3.6039   -2.0554    0.0941 H   0  0  0  0  0  0  0  0  0  0  0  0
    5.0091   -1.0152    0.3045 H   0  0  0  0  0  0  0  0  0  0  0  0
    3.8546   -1.1989    1.6282 H   0  0  0  0  0  0  0  0  0  0  0  0
    2.7652   -0.7292   -1.9682 H   0  0  0  0  0  0  0  0  0  0  0  0
    4.2739    0.1697   -1.8418 H   0  0  0  0  0  0  0  0  0  0  0  0
    2.7525    1.0404   -1.9242 H   0  0  0  0  0  0  0  0  0  0  0  0
   -4.8666   -0.9391   -0.6922 H   0  0  0  0  0  0  0  0  0  0  0  0
   -4.4918   -0.3855   -2.3322 H   0  0  0  0  0  0  0  0  0  0  0  0
   -4.7779    0.7986   -1.0563 H   0  0  0  0  0  0  0  0  0  0  0  0
  1  9  2  0  0  0  0
  2 10  2  0  0  0  0
  3  5  1  0  0  0  0
  3 10  1  0  0  0  0
  3 20  1  0  0  0  0
  4  7  1  0  0  0  0
  4  9  1  0  0  0  0
  4 21  1  0  0  0  0
  5  6  1  0  0  0  0
  5  9  1  0  0  0  0
  5 16  1  0  0  0  0
  6 11  1  0  0  0  0
  6 12  1  0  0  0  0
  6 17  1  0  0  0  0
  7  8  1  0  0  0  0
  7 10  1  0  0  0  0
  7 18  1  0  0  0  0
  8 13  1  0  0  0  0
  8 14  1  0  0  0  0
  8 19  1  0  0  0  0
 11 15  1  0  0  0  0
 11 22  1  0  0  0  0
 11 23  1  0  0  0  0
 12 24  1  0  0  0  0
 12 25  1  0  0  0  0
 12 26  1  0  0  0  0
 13 27  1  0  0  0  0
 13 28  1  0  0  0  0
 13 29  1  0  0  0  0
 14 30  1  0  0  0  0
 14 31  1  0  0  0  0
 14 32  1  0  0  0  0
 15 33  1  0  0  0  0
 15 34  1  0  0  0  0
 15 35  1  0  0  0  0
M  END
> <PUBCHEM_COMPOUND_CID>
12086127

> <PUBCHEM_CONFORMER_RMSD>
0.6

> <PUBCHEM_CONFORMER_DIVERSEORDER>
1
4
7
12
3
9
5
6
10
2
14
13
11
8

> <PUBCHEM_MMFF94_PARTIAL_CHARGES>
10
1 -0.57
10 0.57
2 -0.57
20 0.37
21 0.37
3 -0.73
4 -0.73
5 0.36
7 0.36
9 0.57

> <PUBCHEM_EFFECTIVE_ROTOR_COUNT>
3.8

> <PUBCHEM_PHARMACOPHORE_FEATURES>
8
1 1 acceptor
1 12 hydrophobe
1 15 hydrophobe
1 2 acceptor
1 3 donor
1 4 donor
3 8 13 14 hydrophobe
6 3 4 5 7 9 10 rings

> <PUBCHEM_HEAVY_ATOM_COUNT>
15

> <PUBCHEM_ATOM_DEF_STEREO_COUNT>
3

> <PUBCHEM_ATOM_UDEF_STEREO_COUNT>
0

> <PUBCHEM_BOND_DEF_STEREO_COUNT>
0

> <PUBCHEM_BOND_UDEF_STEREO_COUNT>
0

> <PUBCHEM_ISOTOPIC_ATOM_COUNT>
0

> <PUBCHEM_COMPONENT_COUNT>
1

> <PUBCHEM_CACTVS_TAUTO_COUNT>
4

> <PUBCHEM_CONFORMER_ID>
00B86B6F00000001

> <PUBCHEM_MMFF94_ENERGY>
43.1325

> <PUBCHEM_FEATURE_SELFOVERLAP>
40.605

> <PUBCHEM_SHAPE_FINGERPRINT>
10062212 137 18272929384682953179
10130415 120 18187365411500266570
10756046 5 18122062267267359102
11206711 2 18336266747479377133
11401426 45 18340757178689096872
11769659 78 16200154261607792838
124424 183 17821725013931682506
12932764 1 17604149328005837065
13380536 243 18259984889828062390
13571099 22 18040994029616646674
13690532 89 18411130329466543155
13705890 14 15841554063500068806
13760787 5 18260555493634796476
14144814 61 18410298012191390288
14289901 80 15769773572046314074
14911166 2 18409165523794224470
14993402 34 18410011035335270878
15279308 100 18260545679386741925
15775835 57 18040713692590037287
15848700 24 18343298137656000852
16945 1 18410016537140806978
18186145 218 18412262861161515421
18619055 16 18187368744352677006
19026448 4 15719401628599625064
200 152 18201709670387577679
20233049 118 18040426681627458916
20645476 183 17750816487255534110
21501502 16 18194407920524838810
2334 1 17977951511676776226
23402539 116 18272082739365226084
23402655 69 18267011774991090613
23463225 33 18262805051702536706
23493267 7 16660641817580197193
23552423 10 17974577093538050746
23557571 272 15769782351054334969
23559900 14 18340502148992001684
25 1 18187920630554739853
2748010 2 18050292758202897626
3060560 45 18338218423768650343
3286 77 17417514848858548130
57812782 119 16845569820453048297
74978 22 18337676437365685224

> <PUBCHEM_SHAPE_MULTIPOLES>
286.99
6.87
1.73
1.14
0.87
0.07
0.28
-0.45
1.5
-0.28
-0.12
0.4
0.07
-0.71

> <PUBCHEM_SHAPE_SELFOVERLAP>
571.316

> <PUBCHEM_SHAPE_VOLUME>
169.2

> <PUBCHEM_COORDINATE_TYPE>
2
5
10

$$$$
