17574188
  -OEChem-11191820503D

 39 42  0     0  0  0  0  0  0999 V2000
    1.4654   -4.1607    0.6116 S   0  0  0  0  0  0  0  0  0  0  0  0
    3.2537    1.5117    2.0262 F   0  0  0  0  0  0  0  0  0  0  0  0
   -0.9939   -1.2433   -2.5196 O   0  0  0  0  0  0  0  0  0  0  0  0
    1.8043   -1.4807    0.0894 N   0  0  0  0  0  0  0  0  0  0  0  0
    0.6154   -1.2596   -0.5237 N   0  0  0  0  0  0  0  0  0  0  0  0
    3.5639   -2.4645    0.9449 N   0  0  0  0  0  0  0  0  0  0  0  0
    3.9101   -1.1539    0.7218 N   0  0  0  0  0  0  0  0  0  0  0  0
   -2.7933    0.0359    0.4805 C   0  0  0  0  0  0  0  0  0  0  0  0
   -1.6740   -0.5053   -0.3291 C   0  0  0  0  0  0  0  0  0  0  0  0
   -4.0289    0.2641   -0.1576 C   0  0  0  0  0  0  0  0  0  0  0  0
    2.8372   -0.6056    0.2167 C   0  0  0  0  0  0  0  0  0  0  0  0
   -0.4471   -0.7683    0.1515 C   0  0  0  0  0  0  0  0  0  0  0  0
    2.7582    0.8037   -0.1871 C   0  0  0  0  0  0  0  0  0  0  0  0
   -1.8718   -0.7963   -1.7884 C   0  0  0  0  0  0  0  0  0  0  0  0
   -2.6864    0.3333    1.8502 C   0  0  0  0  0  0  0  0  0  0  0  0
   -4.2020   -0.0263   -1.5836 C   0  0  0  0  0  0  0  0  0  0  0  0
   -5.1166    0.7755    0.5678 C   0  0  0  0  0  0  0  0  0  0  0  0
   -3.2166   -0.5141   -2.3425 C   0  0  0  0  0  0  0  0  0  0  0  0
    2.2447   -2.6982    0.5396 C   0  0  0  0  0  0  0  0  0  0  0  0
   -3.7746    0.8421    2.5640 C   0  0  0  0  0  0  0  0  0  0  0  0
   -4.9883    1.0631    1.9241 C   0  0  0  0  0  0  0  0  0  0  0  0
    2.9735    1.8141    0.7504 C   0  0  0  0  0  0  0  0  0  0  0  0
    2.4679    1.1317   -1.5114 C   0  0  0  0  0  0  0  0  0  0  0  0
    2.8984    3.1521    0.3634 C   0  0  0  0  0  0  0  0  0  0  0  0
    2.3927    2.4698   -1.8983 C   0  0  0  0  0  0  0  0  0  0  0  0
    2.6080    3.4799   -0.9610 C   0  0  0  0  0  0  0  0  0  0  0  0
   -0.2057   -0.5909    1.1938 H   0  0  0  0  0  0  0  0  0  0  0  0
    0.5566   -1.4818   -1.5087 H   0  0  0  0  0  0  0  0  0  0  0  0
   -1.7619    0.1800    2.3990 H   0  0  0  0  0  0  0  0  0  0  0  0
   -5.1732    0.1664   -2.0293 H   0  0  0  0  0  0  0  0  0  0  0  0
   -6.0738    0.9546    0.0829 H   0  0  0  0  0  0  0  0  0  0  0  0
   -3.3764   -0.7186   -3.3956 H   0  0  0  0  0  0  0  0  0  0  0  0
   -3.6705    1.0653    3.6221 H   0  0  0  0  0  0  0  0  0  0  0  0
   -5.8335    1.4585    2.4794 H   0  0  0  0  0  0  0  0  0  0  0  0
    4.2339   -3.1158    1.3336 H   0  0  0  0  0  0  0  0  0  0  0  0
    2.3076    0.3570   -2.2568 H   0  0  0  0  0  0  0  0  0  0  0  0
    3.0662    3.9385    1.0934 H   0  0  0  0  0  0  0  0  0  0  0  0
    2.1687    2.7250   -2.9299 H   0  0  0  0  0  0  0  0  0  0  0  0
    2.5499    4.5217   -1.2623 H   0  0  0  0  0  0  0  0  0  0  0  0
  1 19  2  0  0  0  0
  2 22  1  0  0  0  0
  3 14  2  0  0  0  0
  4  5  1  0  0  0  0
  4 11  1  0  0  0  0
  4 19  1  0  0  0  0
  5 12  1  0  0  0  0
  5 28  1  0  0  0  0
  6  7  1  0  0  0  0
  6 19  1  0  0  0  0
  6 35  1  0  0  0  0
  7 11  2  0  0  0  0
  8  9  1  0  0  0  0
  8 10  1  0  0  0  0
  8 15  2  0  0  0  0
  9 12  2  0  0  0  0
  9 14  1  0  0  0  0
 10 16  1  0  0  0  0
 10 17  2  0  0  0  0
 11 13  1  0  0  0  0
 12 27  1  0  0  0  0
 13 22  1  0  0  0  0
 13 23  2  0  0  0  0
 14 18  1  0  0  0  0
 15 20  1  0  0  0  0
 15 29  1  0  0  0  0
 16 18  2  0  0  0  0
 16 30  1  0  0  0  0
 17 21  1  0  0  0  0
 17 31  1  0  0  0  0
 18 32  1  0  0  0  0
 20 21  2  0  0  0  0
 20 33  1  0  0  0  0
 21 34  1  0  0  0  0
 22 24  2  0  0  0  0
 23 25  1  0  0  0  0
 23 36  1  0  0  0  0
 24 26  1  0  0  0  0
 24 37  1  0  0  0  0
 25 26  2  0  0  0  0
 25 38  1  0  0  0  0
 26 39  1  0  0  0  0
M  END
> <PUBCHEM_COMPOUND_CID>
17574188

> <PUBCHEM_CONFORMER_RMSD>
0.6

> <PUBCHEM_CONFORMER_DIVERSEORDER>
2
76
79
43
46
58
55
28
62
75
27
80
44
48
71
68
65
45
64
78
57
81
56
69
3
77
82
67
50
66
13
38
59
9
52
72
61
10
70
51
60
37
84
14
53
83
73
20
54
19
32
74
31
33
35
63
4
41
26
36
34
42
25
47
49
1
39
40
30
29
16
15
18
21
17
22
12
11
6
5
24
23
7
8

> <PUBCHEM_MMFF94_PARTIAL_CHARGES>
39
1 -0.38
10 0.03
11 0.42
12 -0.05
13 0.09
14 0.54
15 -0.15
16 -0.18
17 -0.15
18 -0.14
19 0.5
2 -0.19
20 -0.15
21 -0.15
22 0.19
23 -0.15
24 -0.15
25 -0.15
26 -0.15
27 0.15
28 0.4
29 0.15
3 -0.57
30 0.15
31 0.15
32 0.15
33 0.15
34 0.15
35 0.37
36 0.15
37 0.15
38 0.15
39 0.15
4 -0.1
5 -0.52
6 -0.37
7 -0.51
8 0.03
9 -0.01

> <PUBCHEM_EFFECTIVE_ROTOR_COUNT>
3

> <PUBCHEM_PHARMACOPHORE_FEATURES>
9
1 1 acceptor
1 3 acceptor
1 5 donor
1 6 donor
3 4 7 11 cation
5 4 6 7 11 19 rings
6 13 22 23 24 25 26 rings
6 8 10 15 17 20 21 rings
6 8 9 10 14 16 18 rings

> <PUBCHEM_HEAVY_ATOM_COUNT>
26

> <PUBCHEM_ATOM_DEF_STEREO_COUNT>
0

> <PUBCHEM_ATOM_UDEF_STEREO_COUNT>
0

> <PUBCHEM_BOND_DEF_STEREO_COUNT>
1

> <PUBCHEM_BOND_UDEF_STEREO_COUNT>
0

> <PUBCHEM_ISOTOPIC_ATOM_COUNT>
0

> <PUBCHEM_COMPONENT_COUNT>
1

> <PUBCHEM_CACTVS_TAUTO_COUNT>
6

> <PUBCHEM_CONFORMER_ID>
010C292C00000002

> <PUBCHEM_MMFF94_ENERGY>
91.5259

> <PUBCHEM_FEATURE_SELFOVERLAP>
45.692

> <PUBCHEM_SHAPE_FINGERPRINT>
10165383 225 17607278551368459700
10369192 42 16808161257149482820
10498660 4 16845579746565912297
10615611 76 18059590065872820865
11049842 53 16916799426506578375
11135609 201 17836658787045687416
11640471 11 18130503144950766524
12633257 1 17458904950141701568
13134695 92 18188479173887838654
13583140 156 18263649459721727243
13965767 371 18060135418828505796
14739800 52 16915068920201225986
14950920 106 18262535714566960961
151778 21 18041857219211636788
17980427 23 17845917573052802186
1813 80 17982178820480342750
19311894 1 17541115589671223484
20511986 3 17846197961039024369
20739085 24 17983864384389977126
21033648 29 17531241747498441813
21756936 100 17981906425254094236
21864079 5 17775012322808511593
22122407 14 18266193746909212049
22849341 161 18198629830749231670
23557571 272 15482667979057090067
23559900 14 16008755680102873951
283562 15 17399517217870163098
38570 142 18197800962217195196
4409770 3 15247673383411592375
474 4 18410568530611563632
49207404 50 17386008420252602437
513202 73 17547573678443558302
5252454 2 17970645192649433908
5895379 119 16559039276598991136
6034566 193 17755869962597518909
621550 5 17242467005342538262
633830 44 18271258216976161421
6823239 73 16009042669500769822
7615 1 18059847372614661527

> <PUBCHEM_SHAPE_MULTIPOLES>
505.85
9.61
3.73
2.32
8.18
1.34
-0.36
-3.49
3
-6.61
0.3
2.37
-0.52
-1.89

> <PUBCHEM_SHAPE_SELFOVERLAP>
1114.262

> <PUBCHEM_SHAPE_VOLUME>
275.1

> <PUBCHEM_COORDINATE_TYPE>
2
5
10

$$$$
