5282804
  -OEChem-11191820503D

 55 54  0     0  0  0  0  0  0999 V2000
   -8.0405    0.8269    0.3826 O   0  0  0  0  0  0  0  0  0  0  0  0
   -7.2173   -0.4830   -1.2823 O   0  0  0  0  0  0  0  0  0  0  0  0
   -0.8785   -1.3341    0.5643 C   0  0  0  0  0  0  0  0  0  0  0  0
   -2.2581   -1.4367   -0.0929 C   0  0  0  0  0  0  0  0  0  0  0  0
    0.2114   -2.1052   -0.1847 C   0  0  0  0  0  0  0  0  0  0  0  0
   -3.3330   -0.6078    0.6143 C   0  0  0  0  0  0  0  0  0  0  0  0
    1.5806   -1.9075    0.4765 C   0  0  0  0  0  0  0  0  0  0  0  0
   -4.6720   -0.6917   -0.1260 C   0  0  0  0  0  0  0  0  0  0  0  0
    2.7011   -2.6908   -0.2197 C   0  0  0  0  0  0  0  0  0  0  0  0
   -5.7583    0.1512    0.5356 C   0  0  0  0  0  0  0  0  0  0  0  0
    3.1420    2.3842   -0.2065 C   0  0  0  0  0  0  0  0  0  0  0  0
    4.0785   -2.6636    0.3867 C   0  0  0  0  0  0  0  0  0  0  0  0
    1.7582    2.5989    0.4160 C   0  0  0  0  0  0  0  0  0  0  0  0
    4.1041    1.6128    0.7042 C   0  0  0  0  0  0  0  0  0  0  0  0
    0.7967    3.3597   -0.5007 C   0  0  0  0  0  0  0  0  0  0  0  0
    5.0856   -1.8289    0.0877 C   0  0  0  0  0  0  0  0  0  0  0  0
    4.9870   -0.7438   -0.9459 C   0  0  0  0  0  0  0  0  0  0  0  0
   -7.0592    0.1160   -0.2265 C   0  0  0  0  0  0  0  0  0  0  0  0
    5.4826    1.4689    0.1261 C   0  0  0  0  0  0  0  0  0  0  0  0
    5.8758    0.4181   -0.6095 C   0  0  0  0  0  0  0  0  0  0  0  0
   -0.5864    3.5563    0.1007 C   0  0  0  0  0  0  0  0  0  0  0  0
   -0.9430   -1.7027    1.5955 H   0  0  0  0  0  0  0  0  0  0  0  0
   -0.5928   -0.2764    0.6239 H   0  0  0  0  0  0  0  0  0  0  0  0
   -2.5672   -2.4889   -0.1181 H   0  0  0  0  0  0  0  0  0  0  0  0
   -2.1781   -1.1054   -1.1359 H   0  0  0  0  0  0  0  0  0  0  0  0
    0.2569   -1.7635   -1.2256 H   0  0  0  0  0  0  0  0  0  0  0  0
   -0.0418   -3.1718   -0.2030 H   0  0  0  0  0  0  0  0  0  0  0  0
   -3.4554   -0.9644    1.6439 H   0  0  0  0  0  0  0  0  0  0  0  0
   -3.0108    0.4391    0.6692 H   0  0  0  0  0  0  0  0  0  0  0  0
    1.8331   -0.8413    0.4772 H   0  0  0  0  0  0  0  0  0  0  0  0
    1.5255   -2.2201    1.5267 H   0  0  0  0  0  0  0  0  0  0  0  0
   -4.9991   -1.7380   -0.1755 H   0  0  0  0  0  0  0  0  0  0  0  0
   -4.5334   -0.3593   -1.1627 H   0  0  0  0  0  0  0  0  0  0  0  0
    2.7560   -2.3665   -1.2668 H   0  0  0  0  0  0  0  0  0  0  0  0
    2.4025   -3.7466   -0.2741 H   0  0  0  0  0  0  0  0  0  0  0  0
   -5.4324    1.1956    0.5954 H   0  0  0  0  0  0  0  0  0  0  0  0
   -5.9459   -0.2203    1.5491 H   0  0  0  0  0  0  0  0  0  0  0  0
    3.0266    1.8486   -1.1570 H   0  0  0  0  0  0  0  0  0  0  0  0
    3.5780    3.3617   -0.4496 H   0  0  0  0  0  0  0  0  0  0  0  0
    4.2632   -3.4120    1.1553 H   0  0  0  0  0  0  0  0  0  0  0  0
    1.3209    1.6251    0.6664 H   0  0  0  0  0  0  0  0  0  0  0  0
    1.8679    3.1486    1.3589 H   0  0  0  0  0  0  0  0  0  0  0  0
    3.6739    0.6405    0.9647 H   0  0  0  0  0  0  0  0  0  0  0  0
    4.2003    2.1466    1.6585 H   0  0  0  0  0  0  0  0  0  0  0  0
    0.6949    2.8184   -1.4488 H   0  0  0  0  0  0  0  0  0  0  0  0
    1.2228    4.3415   -0.7391 H   0  0  0  0  0  0  0  0  0  0  0  0
    6.0356   -1.9688    0.5989 H   0  0  0  0  0  0  0  0  0  0  0  0
    5.3264   -1.1488   -1.9076 H   0  0  0  0  0  0  0  0  0  0  0  0
    3.9560   -0.4137   -1.1052 H   0  0  0  0  0  0  0  0  0  0  0  0
    6.1894    2.2730    0.3124 H   0  0  0  0  0  0  0  0  0  0  0  0
    6.8970    0.3933   -0.9811 H   0  0  0  0  0  0  0  0  0  0  0  0
   -1.0588    2.5922    0.3149 H   0  0  0  0  0  0  0  0  0  0  0  0
   -1.2296    4.1043   -0.5947 H   0  0  0  0  0  0  0  0  0  0  0  0
   -0.5287    4.1255    1.0337 H   0  0  0  0  0  0  0  0  0  0  0  0
   -8.8808    0.7988   -0.1229 H   0  0  0  0  0  0  0  0  0  0  0  0
  1 18  1  0  0  0  0
  1 55  1  0  0  0  0
  2 18  2  0  0  0  0
  3  4  1  0  0  0  0
  3  5  1  0  0  0  0
  3 22  1  0  0  0  0
  3 23  1  0  0  0  0
  4  6  1  0  0  0  0
  4 24  1  0  0  0  0
  4 25  1  0  0  0  0
  5  7  1  0  0  0  0
  5 26  1  0  0  0  0
  5 27  1  0  0  0  0
  6  8  1  0  0  0  0
  6 28  1  0  0  0  0
  6 29  1  0  0  0  0
  7  9  1  0  0  0  0
  7 30  1  0  0  0  0
  7 31  1  0  0  0  0
  8 10  1  0  0  0  0
  8 32  1  0  0  0  0
  8 33  1  0  0  0  0
  9 12  1  0  0  0  0
  9 34  1  0  0  0  0
  9 35  1  0  0  0  0
 10 18  1  0  0  0  0
 10 36  1  0  0  0  0
 10 37  1  0  0  0  0
 11 13  1  0  0  0  0
 11 14  1  0  0  0  0
 11 38  1  0  0  0  0
 11 39  1  0  0  0  0
 12 16  2  0  0  0  0
 12 40  1  0  0  0  0
 13 15  1  0  0  0  0
 13 41  1  0  0  0  0
 13 42  1  0  0  0  0
 14 19  1  0  0  0  0
 14 43  1  0  0  0  0
 14 44  1  0  0  0  0
 15 21  1  0  0  0  0
 15 45  1  0  0  0  0
 15 46  1  0  0  0  0
 16 17  1  0  0  0  0
 16 47  1  0  0  0  0
 17 20  1  0  0  0  0
 17 48  1  0  0  0  0
 17 49  1  0  0  0  0
 19 20  2  0  0  0  0
 19 50  1  0  0  0  0
 20 51  1  0  0  0  0
 21 52  1  0  0  0  0
 21 53  1  0  0  0  0
 21 54  1  0  0  0  0
M  END
> <PUBCHEM_COMPOUND_CID>
5282804

> <PUBCHEM_CONFORMER_RMSD>
1.4

> <PUBCHEM_CONFORMER_DIVERSEORDER>
1
63
123
20
2
95
17
55
65
12
36
72
81
96
15
121
22
54
51
44
66
89
19
61
98
13
52
6
21
112
88
41
39
129
125
114
93
37
91
33
30
107
86
53
25
9
74
5
83
119
126
71
4
90
94
133
3
43
128
10
78
50
109
111
77
92
106
14
131
103
8
102
46
49
57
115
127
26
27
38
59
76
101
45
69
108
40
116
87
58
80
135
29
28
117
23
16
31
97
124
47
34
118
85
130
67
32
134
82
100
132
110
24
104
70
18
73
60
68
122
11
84
48
120
64
7
42
99
35
113
56
105
75
136
62
79

> <PUBCHEM_MMFF94_PARTIAL_CHARGES>
16
1 -0.65
10 0.06
12 -0.29
14 0.14
16 -0.29
17 0.28
18 0.66
19 -0.29
2 -0.57
20 -0.29
40 0.15
47 0.15
50 0.15
51 0.15
55 0.5
9 0.14

> <PUBCHEM_EFFECTIVE_ROTOR_COUNT>
15

> <PUBCHEM_PHARMACOPHORE_FEATURES>
5
1 1 acceptor
1 2 acceptor
1 21 hydrophobe
3 1 2 18 anion
5 11 13 14 15 19 hydrophobe

> <PUBCHEM_HEAVY_ATOM_COUNT>
21

> <PUBCHEM_ATOM_DEF_STEREO_COUNT>
0

> <PUBCHEM_ATOM_UDEF_STEREO_COUNT>
0

> <PUBCHEM_BOND_DEF_STEREO_COUNT>
2

> <PUBCHEM_BOND_UDEF_STEREO_COUNT>
0

> <PUBCHEM_ISOTOPIC_ATOM_COUNT>
0

> <PUBCHEM_COMPONENT_COUNT>
1

> <PUBCHEM_CACTVS_TAUTO_COUNT>
1

> <PUBCHEM_CONFORMER_ID>
00509BF400000001

> <PUBCHEM_MMFF94_ENERGY>
5.7253

> <PUBCHEM_FEATURE_SELFOVERLAP>
25.429

> <PUBCHEM_SHAPE_FINGERPRINT>
12838862 33 18340194294083708424
13111901 137 17604413138293880077
13402501 40 18334857229312054564
14429380 56 18410281511349474183
14464042 87 18202007603151712632
14681490 219 18410853252911130221
15183329 4 18343868818218349737
15210252 30 17968950833090148732
15483637 11 18048878489855461237
17093844 170 18339360894397980928
18335252 114 18411409610516637173
20554085 129 16588299484907274907
20721686 56 18335423461211035161
21298829 104 18343586269473831184
21344244 78 18046606946905461234
3014063 31 18410294697041211324
5312510 48 18411139164404032202
59755656 215 18408041814231226757

> <PUBCHEM_SHAPE_MULTIPOLES>
420.43
19.06
4.18
0.85
36.71
2.68
0.08
-0.42
2.39
-4.94
-0.09
0.12
-0.02
-0.09

> <PUBCHEM_SHAPE_SELFOVERLAP>
777.221

> <PUBCHEM_SHAPE_VOLUME>
263.3

> <PUBCHEM_COORDINATE_TYPE>
2
5
10

$$$$
