9548595
  -OEChem-11191820433D

 81 84  0     1  0  0  0  0  0999 V2000
   -7.9418    0.3045    1.1620 O   0  0  0  0  0  0  0  0  0  0  0  0
    0.5334   -0.8701   -0.5458 C   0  0  1  0  0  0  0  0  0  0  0  0
   -0.0925    0.5380   -0.6200 C   0  0  2  0  0  0  0  0  0  0  0  0
   -2.2465   -0.2998    0.4679 C   0  0  2  0  0  0  0  0  0  0  0  0
   -3.8091   -0.4869    0.2892 C   0  0  2  0  0  0  0  0  0  0  0  0
    2.0339   -0.4897   -0.5054 C   0  0  2  0  0  0  0  0  0  0  0  0
   -1.5995    0.5056   -0.6645 C   0  0  0  0  0  0  0  0  0  0  0  0
   -4.4151    0.8905   -0.1467 C   0  0  2  0  0  0  0  0  0  0  0  0
    0.0257   -1.5404    0.7411 C   0  0  0  0  0  0  0  0  0  0  0  0
   -1.5078   -1.6415    0.7524 C   0  0  0  0  0  0  0  0  0  0  0  0
    0.7375    1.2340   -1.7034 C   0  0  0  0  0  0  0  0  0  0  0  0
    2.1549    0.6615   -1.5279 C   0  0  0  0  0  0  0  0  0  0  0  0
   -4.4325   -0.9039    1.6464 C   0  0  0  0  0  0  0  0  0  0  0  0
   -5.9719    0.9162   -0.1470 C   0  0  1  0  0  0  0  0  0  0  0  0
   -3.8176    1.3363   -1.4974 C   0  0  0  0  0  0  0  0  0  0  0  0
    3.0248   -1.6165   -0.7617 C   0  0  1  0  0  0  0  0  0  0  0  0
    0.2025   -1.7501   -1.7769 C   0  0  0  0  0  0  0  0  0  0  0  0
   -2.3258    1.2011   -1.5549 C   0  0  0  0  0  0  0  0  0  0  0  0
   -4.1222   -1.5852   -0.7634 C   0  0  0  0  0  0  0  0  0  0  0  0
   -5.9553   -0.9064    1.6313 C   0  0  0  0  0  0  0  0  0  0  0  0
   -6.5233    0.4453    1.2147 C   0  0  2  0  0  0  0  0  0  0  0  0
    4.4690   -1.0722   -0.7257 C   0  0  0  0  0  0  0  0  0  0  0  0
   -6.5211    2.3117   -0.4873 C   0  0  0  0  0  0  0  0  0  0  0  0
    2.8097   -2.7447    0.2525 C   0  0  0  0  0  0  0  0  0  0  0  0
    4.8264   -0.3671    0.5905 C   0  0  0  0  0  0  0  0  0  0  0  0
    6.2261    0.2186    0.5836 C   0  0  0  0  0  0  0  0  0  0  0  0
    6.4586    1.5298    1.3333 C   0  0  0  0  0  0  0  0  0  0  0  0
    7.2514   -0.3475   -0.0873 C   0  0  0  0  0  0  0  0  0  0  0  0
    6.2558    2.7443    0.4225 C   0  0  0  0  0  0  0  0  0  0  0  0
    5.6065    1.6536    2.5980 C   0  0  0  0  0  0  0  0  0  0  0  0
    8.6659    0.1309   -0.1702 C   0  0  0  0  0  0  0  0  0  0  0  0
    0.1439    1.0713    0.3168 H   0  0  0  0  0  0  0  0  0  0  0  0
   -2.0959    0.3200    1.3659 H   0  0  0  0  0  0  0  0  0  0  0  0
    2.2074   -0.0668    0.4927 H   0  0  0  0  0  0  0  0  0  0  0  0
   -4.0951    1.6314    0.6039 H   0  0  0  0  0  0  0  0  0  0  0  0
    0.3470   -0.9700    1.6221 H   0  0  0  0  0  0  0  0  0  0  0  0
    0.3964   -2.5560    0.8734 H   0  0  0  0  0  0  0  0  0  0  0  0
   -1.7953   -2.4058    0.0243 H   0  0  0  0  0  0  0  0  0  0  0  0
   -1.8155   -2.0252    1.7323 H   0  0  0  0  0  0  0  0  0  0  0  0
    0.7290    2.3228   -1.5864 H   0  0  0  0  0  0  0  0  0  0  0  0
    0.3695    1.0069   -2.7105 H   0  0  0  0  0  0  0  0  0  0  0  0
    2.5293    0.3190   -2.4993 H   0  0  0  0  0  0  0  0  0  0  0  0
    2.8409    1.4345   -1.1644 H   0  0  0  0  0  0  0  0  0  0  0  0
   -4.0952   -0.2164    2.4332 H   0  0  0  0  0  0  0  0  0  0  0  0
   -4.0875   -1.9022    1.9401 H   0  0  0  0  0  0  0  0  0  0  0  0
   -6.3544    0.2445   -0.9257 H   0  0  0  0  0  0  0  0  0  0  0  0
   -4.0514    2.3942   -1.6637 H   0  0  0  0  0  0  0  0  0  0  0  0
   -4.2620    0.7781   -2.3293 H   0  0  0  0  0  0  0  0  0  0  0  0
    2.8792   -2.0374   -1.7644 H   0  0  0  0  0  0  0  0  0  0  0  0
    0.5383   -2.7820   -1.6378 H   0  0  0  0  0  0  0  0  0  0  0  0
   -0.8725   -1.7934   -1.9773 H   0  0  0  0  0  0  0  0  0  0  0  0
    0.6731   -1.3773   -2.6926 H   0  0  0  0  0  0  0  0  0  0  0  0
   -1.8342    1.7686   -2.3395 H   0  0  0  0  0  0  0  0  0  0  0  0
   -3.9231   -2.5870   -0.3674 H   0  0  0  0  0  0  0  0  0  0  0  0
   -5.1720   -1.5832   -1.0690 H   0  0  0  0  0  0  0  0  0  0  0  0
   -3.5232   -1.4688   -1.6719 H   0  0  0  0  0  0  0  0  0  0  0  0
   -6.3353   -1.6956    0.9708 H   0  0  0  0  0  0  0  0  0  0  0  0
   -6.3280   -1.1670    2.6302 H   0  0  0  0  0  0  0  0  0  0  0  0
   -6.2933    1.1950    1.9822 H   0  0  0  0  0  0  0  0  0  0  0  0
    5.1318   -1.9296   -0.8922 H   0  0  0  0  0  0  0  0  0  0  0  0
    4.6332   -0.3915   -1.5704 H   0  0  0  0  0  0  0  0  0  0  0  0
   -7.6134    2.3352   -0.4118 H   0  0  0  0  0  0  0  0  0  0  0  0
   -6.1201    3.0705    0.1928 H   0  0  0  0  0  0  0  0  0  0  0  0
   -6.2705    2.6005   -1.5122 H   0  0  0  0  0  0  0  0  0  0  0  0
    1.9906   -3.4042   -0.0408 H   0  0  0  0  0  0  0  0  0  0  0  0
    3.6952   -3.3911    0.2858 H   0  0  0  0  0  0  0  0  0  0  0  0
    2.6528   -2.3729    1.2696 H   0  0  0  0  0  0  0  0  0  0  0  0
   -8.2469    0.0568    2.0516 H   0  0  0  0  0  0  0  0  0  0  0  0
    4.7217   -1.0406    1.4476 H   0  0  0  0  0  0  0  0  0  0  0  0
    4.1349    0.4648    0.7311 H   0  0  0  0  0  0  0  0  0  0  0  0
    7.4926    1.5568    1.6981 H   0  0  0  0  0  0  0  0  0  0  0  0
    7.0973   -1.2879   -0.6080 H   0  0  0  0  0  0  0  0  0  0  0  0
    5.2223    2.8027    0.0628 H   0  0  0  0  0  0  0  0  0  0  0  0
    6.9127    2.7036   -0.4527 H   0  0  0  0  0  0  0  0  0  0  0  0
    6.4767    3.6722    0.9609 H   0  0  0  0  0  0  0  0  0  0  0  0
    4.5483    1.8257    2.3768 H   0  0  0  0  0  0  0  0  0  0  0  0
    5.9469    2.5047    3.1993 H   0  0  0  0  0  0  0  0  0  0  0  0
    5.6892    0.7577    3.2231 H   0  0  0  0  0  0  0  0  0  0  0  0
    8.8088    1.1747    0.1143 H   0  0  0  0  0  0  0  0  0  0  0  0
    9.3081   -0.4951    0.4567 H   0  0  0  0  0  0  0  0  0  0  0  0
    9.0145    0.0392   -1.2047 H   0  0  0  0  0  0  0  0  0  0  0  0
  1 21  1  0  0  0  0
  1 68  1  0  0  0  0
  2  3  1  0  0  0  0
  2  6  1  0  0  0  0
  2  9  1  0  0  0  0
  2 17  1  0  0  0  0
  3  7  1  0  0  0  0
  3 11  1  0  0  0  0
  3 32  1  0  0  0  0
  4  5  1  0  0  0  0
  4  7  1  0  0  0  0
  4 10  1  0  0  0  0
  4 33  1  0  0  0  0
  5  8  1  0  0  0  0
  5 13  1  0  0  0  0
  5 19  1  0  0  0  0
  6 12  1  0  0  0  0
  6 16  1  0  0  0  0
  6 34  1  0  0  0  0
  7 18  2  0  0  0  0
  8 14  1  0  0  0  0
  8 15  1  0  0  0  0
  8 35  1  0  0  0  0
  9 10  1  0  0  0  0
  9 36  1  0  0  0  0
  9 37  1  0  0  0  0
 10 38  1  0  0  0  0
 10 39  1  0  0  0  0
 11 12  1  0  0  0  0
 11 40  1  0  0  0  0
 11 41  1  0  0  0  0
 12 42  1  0  0  0  0
 12 43  1  0  0  0  0
 13 20  1  0  0  0  0
 13 44  1  0  0  0  0
 13 45  1  0  0  0  0
 14 21  1  0  0  0  0
 14 23  1  0  0  0  0
 14 46  1  0  0  0  0
 15 18  1  0  0  0  0
 15 47  1  0  0  0  0
 15 48  1  0  0  0  0
 16 22  1  0  0  0  0
 16 24  1  0  0  0  0
 16 49  1  0  0  0  0
 17 50  1  0  0  0  0
 17 51  1  0  0  0  0
 17 52  1  0  0  0  0
 18 53  1  0  0  0  0
 19 54  1  0  0  0  0
 19 55  1  0  0  0  0
 19 56  1  0  0  0  0
 20 21  1  0  0  0  0
 20 57  1  0  0  0  0
 20 58  1  0  0  0  0
 21 59  1  0  0  0  0
 22 25  1  0  0  0  0
 22 60  1  0  0  0  0
 22 61  1  0  0  0  0
 23 62  1  0  0  0  0
 23 63  1  0  0  0  0
 23 64  1  0  0  0  0
 24 65  1  0  0  0  0
 24 66  1  0  0  0  0
 24 67  1  0  0  0  0
 25 26  1  0  0  0  0
 25 69  1  0  0  0  0
 25 70  1  0  0  0  0
 26 27  1  0  0  0  0
 26 28  2  0  0  0  0
 27 29  1  0  0  0  0
 27 30  1  0  0  0  0
 27 71  1  0  0  0  0
 28 31  1  0  0  0  0
 28 72  1  0  0  0  0
 29 73  1  0  0  0  0
 29 74  1  0  0  0  0
 29 75  1  0  0  0  0
 30 76  1  0  0  0  0
 30 77  1  0  0  0  0
 30 78  1  0  0  0  0
 31 79  1  0  0  0  0
 31 80  1  0  0  0  0
 31 81  1  0  0  0  0
M  END
> <PUBCHEM_COMPOUND_CID>
9548595

> <PUBCHEM_CONFORMER_RMSD>
0.8

> <PUBCHEM_CONFORMER_DIVERSEORDER>
6
12
10
21
20
7
18
19
13
1
5
16
3
14
17
4
15
11
9
8
2

> <PUBCHEM_MMFF94_PARTIAL_CHARGES>
15
1 -0.68
15 0.14
18 -0.29
21 0.28
25 0.14
26 -0.28
27 0.14
28 -0.29
3 0.14
31 0.14
4 0.14
53 0.15
68 0.4
7 -0.28
72 0.15

> <PUBCHEM_EFFECTIVE_ROTOR_COUNT>
7

> <PUBCHEM_PHARMACOPHORE_FEATURES>
10
1 1 acceptor
1 1 donor
1 24 hydrophobe
1 31 hydrophobe
3 27 29 30 hydrophobe
5 16 22 25 26 27 hydrophobe
5 2 3 6 11 12 rings
6 2 3 4 7 9 10 rings
6 4 5 7 8 15 18 rings
6 5 8 13 14 20 21 rings

> <PUBCHEM_HEAVY_ATOM_COUNT>
31

> <PUBCHEM_ATOM_DEF_STEREO_COUNT>
9

> <PUBCHEM_ATOM_UDEF_STEREO_COUNT>
0

> <PUBCHEM_BOND_DEF_STEREO_COUNT>
1

> <PUBCHEM_BOND_UDEF_STEREO_COUNT>
0

> <PUBCHEM_ISOTOPIC_ATOM_COUNT>
0

> <PUBCHEM_COMPONENT_COUNT>
1

> <PUBCHEM_CACTVS_TAUTO_COUNT>
1

> <PUBCHEM_CONFORMER_ID>
0091B33300000006

> <PUBCHEM_MMFF94_ENERGY>
97.9594

> <PUBCHEM_FEATURE_SELFOVERLAP>
50.841

> <PUBCHEM_SHAPE_FINGERPRINT>
10 15 18187366545297837816
10165383 225 18411703197823452694
10319926 262 17894631478423301065
10670039 82 13470692520557037354
10693767 8 8574441893956747496
11456790 92 18341886348142128000
11991303 11 15913038876615737908
12035758 1 18186521011854790789
12166972 35 14129347307491755463
12236239 1 15984820398655934039
12422481 6 18334292119517500396
12838862 33 17676480624358862437
13540713 4 17752761338467461774
13685833 64 12396298153886085688
13782708 43 7853854992245435216
14028597 1 16226042250004775185
14251764 18 16443071603468956638
14840074 17 16917065564123510281
14856354 85 14979949285690982373
14931854 50 11239724033403418571
15119646 104 14490188289386272864
15183329 4 12324240572807029672
15301273 46 18261396620552388614
15352257 5 11458429033144685760
15461852 350 18201995552195932879
15840311 113 18202006525062102124
17980427 23 18340203106390918165
18335252 114 17060336319586362024
18603816 31 13912618181902234625
19309040 13 17486485191089290252
19841028 212 13840251577704490440
2026 5 11746926582000793177
20511986 3 18342731910526916919
20567600 247 13117996717128303720
21033648 29 18335137587718353811
21130935 74 18261959527424788267
21315764 119 13110973045693387872
22122407 14 17203055170385628218
22224240 67 18342177769593702071
23522609 53 15648489670217740941
23559900 14 17968947357617736471
23569914 152 8499333111779394025
23576562 1 14116932743245756409
24771293 8 18336824307871236948
2838139 119 17203608194769919696
3004659 81 16950861236099669966
3383291 50 17167868598878161787
34797466 226 17632301142156081926
3882209 13 17469039320704328227
394071 54 18060703888215543168
397830 11 18337956804225022522
4058900 60 15123520202288246327
4093350 32 17917716747313920134
4325135 7 14908181932383339072
4340502 62 18333450928676831282
504579 68 14836403618625585792
5104073 3 18042965380660642114
5364581 5 18262518233465230409
58902169 19 15985097527405802816
59682541 35 18186806902184391762
6608658 132 15051746265192131203

> <PUBCHEM_SHAPE_MULTIPOLES>
632.1
21.79
2.27
1.76
12.19
0.11
0.35
9.03
9.08
1.07
0.01
-0.06
0.37
2.44

> <PUBCHEM_SHAPE_SELFOVERLAP>
1308.22

> <PUBCHEM_SHAPE_VOLUME>
361.3

> <PUBCHEM_COORDINATE_TYPE>
2
5
10

$$$$
