13786591
  -OEChem-11181806243D

100104  0     1  0  0  0  0  0999 V2000
   -3.9256   -0.6203    0.9312 O   0  0  0  0  0  0  0  0  0  0  0  0
   -4.3725    1.4775    0.0727 O   0  0  0  0  0  0  0  0  0  0  0  0
  -11.7988    1.8968   -0.1771 O   0  0  0  0  0  0  0  0  0  0  0  0
  -12.5222   -0.7858   -0.1263 O   0  0  0  0  0  0  0  0  0  0  0  0
    4.6918   -0.9081   -0.5473 C   0  0  1  0  0  0  0  0  0  0  0  0
    3.8001    0.2572   -1.0284 C   0  0  2  0  0  0  0  0  0  0  0  0
    2.3303   -0.1447   -1.1943 C   0  0  1  0  0  0  0  0  0  0  0  0
    1.7915   -0.6398    0.1874 C   0  0  1  0  0  0  0  0  0  0  0  0
    0.2667   -1.0247    0.1194 C   0  0  2  0  0  0  0  0  0  0  0  0
    6.0615   -0.1862   -0.5465 C   0  0  2  0  0  0  0  0  0  0  0  0
    4.1917   -1.3418    0.8379 C   0  0  0  0  0  0  0  0  0  0  0  0
   -0.5066    0.2255   -0.4121 C   0  0  1  0  0  0  0  0  0  0  0  0
    2.7022   -1.7313    0.8093 C   0  0  0  0  0  0  0  0  0  0  0  0
    4.5569    0.8161   -2.2295 C   0  0  0  0  0  0  0  0  0  0  0  0
    1.4874    1.0181   -1.7372 C   0  0  0  0  0  0  0  0  0  0  0  0
    6.0398    0.6417   -1.8528 C   0  0  0  0  0  0  0  0  0  0  0  0
   -0.0025    0.6861   -1.7841 C   0  0  0  0  0  0  0  0  0  0  0  0
   -0.2806   -1.3495    1.5388 C   0  0  0  0  0  0  0  0  0  0  0  0
    4.7065   -2.1295   -1.5007 C   0  0  0  0  0  0  0  0  0  0  0  0
    7.2965   -1.0673   -0.4242 C   0  0  1  0  0  0  0  0  0  0  0  0
   -2.0280    0.0313   -0.4110 C   0  0  0  0  0  0  0  0  0  0  0  0
    0.0522   -2.2671   -0.7826 C   0  0  0  0  0  0  0  0  0  0  0  0
   -1.8012   -1.5150    1.5843 C   0  0  0  0  0  0  0  0  0  0  0  0
   -2.5352   -0.3188    0.9875 C   0  0  2  0  0  0  0  0  0  0  0  0
    8.5743   -0.2026   -0.4826 C   0  0  0  0  0  0  0  0  0  0  0  0
    7.2246   -1.8985    0.8611 C   0  0  0  0  0  0  0  0  0  0  0  0
    8.6267    0.8891    0.5932 C   0  0  0  0  0  0  0  0  0  0  0  0
    9.9128    1.7492    0.5486 C   0  0  2  0  0  0  0  0  0  0  0  0
   -4.7280    0.3728    0.4518 C   0  0  0  0  0  0  0  0  0  0  0  0
   11.2288    0.9191    0.5513 C   0  0  0  0  0  0  0  0  0  0  0  0
    9.8488    2.7867    1.6787 C   0  0  0  0  0  0  0  0  0  0  0  0
   -6.1236   -0.1210    0.4703 C   0  0  0  0  0  0  0  0  0  0  0  0
   12.4707    1.8135    0.4551 C   0  0  0  0  0  0  0  0  0  0  0  0
   11.3675   -0.0218    1.7510 C   0  0  0  0  0  0  0  0  0  0  0  0
   -7.1112    0.6728    0.0322 C   0  0  0  0  0  0  0  0  0  0  0  0
   -8.5342    0.2927   -0.0090 C   0  0  0  0  0  0  0  0  0  0  0  0
   -9.4995    1.2844   -0.0746 C   0  0  0  0  0  0  0  0  0  0  0  0
   -8.8791   -1.0487    0.0185 C   0  0  0  0  0  0  0  0  0  0  0  0
  -10.8467    0.9247   -0.1140 C   0  0  0  0  0  0  0  0  0  0  0  0
  -10.2263   -1.4084   -0.0207 C   0  0  0  0  0  0  0  0  0  0  0  0
  -11.2101   -0.4218   -0.0870 C   0  0  0  0  0  0  0  0  0  0  0  0
  -12.2974    2.3971    1.0620 C   0  0  0  0  0  0  0  0  0  0  0  0
    3.8216    1.0507   -0.2623 H   0  0  0  0  0  0  0  0  0  0  0  0
    2.2668   -0.9550   -1.9273 H   0  0  0  0  0  0  0  0  0  0  0  0
    1.8624    0.2200    0.8729 H   0  0  0  0  0  0  0  0  0  0  0  0
    6.0329    0.5194    0.2945 H   0  0  0  0  0  0  0  0  0  0  0  0
    4.7275   -2.2058    1.2318 H   0  0  0  0  0  0  0  0  0  0  0  0
    4.3263   -0.5285    1.5625 H   0  0  0  0  0  0  0  0  0  0  0  0
   -0.3059    1.0547    0.2848 H   0  0  0  0  0  0  0  0  0  0  0  0
    2.3923   -1.9295    1.8415 H   0  0  0  0  0  0  0  0  0  0  0  0
    2.5908   -2.6757    0.2677 H   0  0  0  0  0  0  0  0  0  0  0  0
    4.3263    0.2590   -3.1445 H   0  0  0  0  0  0  0  0  0  0  0  0
    4.3151    1.8682   -2.4123 H   0  0  0  0  0  0  0  0  0  0  0  0
    1.6356    1.9072   -1.1109 H   0  0  0  0  0  0  0  0  0  0  0  0
    1.8209    1.2860   -2.7465 H   0  0  0  0  0  0  0  0  0  0  0  0
    6.5652    0.1391   -2.6729 H   0  0  0  0  0  0  0  0  0  0  0  0
    6.5169    1.6164   -1.7038 H   0  0  0  0  0  0  0  0  0  0  0  0
   -0.1929   -0.0779   -2.5463 H   0  0  0  0  0  0  0  0  0  0  0  0
   -0.5495    1.5824   -2.1015 H   0  0  0  0  0  0  0  0  0  0  0  0
    0.0019   -0.5459    2.2316 H   0  0  0  0  0  0  0  0  0  0  0  0
    0.1732   -2.2689    1.9267 H   0  0  0  0  0  0  0  0  0  0  0  0
    5.1244   -1.8871   -2.4830 H   0  0  0  0  0  0  0  0  0  0  0  0
    3.7072   -2.5361   -1.6781 H   0  0  0  0  0  0  0  0  0  0  0  0
    5.3008   -2.9522   -1.0919 H   0  0  0  0  0  0  0  0  0  0  0  0
    7.3592   -1.7632   -1.2700 H   0  0  0  0  0  0  0  0  0  0  0  0
   -2.3315   -0.7414   -1.1279 H   0  0  0  0  0  0  0  0  0  0  0  0
   -2.4592    0.9566   -0.7974 H   0  0  0  0  0  0  0  0  0  0  0  0
    0.5150   -3.1584   -0.3461 H   0  0  0  0  0  0  0  0  0  0  0  0
   -1.0061   -2.5060   -0.9186 H   0  0  0  0  0  0  0  0  0  0  0  0
    0.4719   -2.1404   -1.7834 H   0  0  0  0  0  0  0  0  0  0  0  0
   -2.1238   -1.6565    2.6236 H   0  0  0  0  0  0  0  0  0  0  0  0
   -2.1025   -2.4346    1.0679 H   0  0  0  0  0  0  0  0  0  0  0  0
   -2.3927    0.5400    1.6574 H   0  0  0  0  0  0  0  0  0  0  0  0
    8.6758    0.2588   -1.4720 H   0  0  0  0  0  0  0  0  0  0  0  0
    9.4279   -0.8810   -0.3792 H   0  0  0  0  0  0  0  0  0  0  0  0
    6.8650   -1.3206    1.7179 H   0  0  0  0  0  0  0  0  0  0  0  0
    6.6130   -2.7933    0.7310 H   0  0  0  0  0  0  0  0  0  0  0  0
    8.2222   -2.2707    1.1240 H   0  0  0  0  0  0  0  0  0  0  0  0
    8.5218    0.4407    1.5878 H   0  0  0  0  0  0  0  0  0  0  0  0
    7.7864    1.5803    0.4724 H   0  0  0  0  0  0  0  0  0  0  0  0
    9.8898    2.3085   -0.3975 H   0  0  0  0  0  0  0  0  0  0  0  0
   11.2397    0.3016   -0.3552 H   0  0  0  0  0  0  0  0  0  0  0  0
   10.6691    3.5071    1.6114 H   0  0  0  0  0  0  0  0  0  0  0  0
    9.8847    2.3140    2.6650 H   0  0  0  0  0  0  0  0  0  0  0  0
    8.9173    3.3611    1.6210 H   0  0  0  0  0  0  0  0  0  0  0  0
   12.6402    2.3796    1.3764 H   0  0  0  0  0  0  0  0  0  0  0  0
   13.3651    1.2063    0.2761 H   0  0  0  0  0  0  0  0  0  0  0  0
   12.3800    2.5214   -0.3753 H   0  0  0  0  0  0  0  0  0  0  0  0
   10.5423   -0.7372    1.8047 H   0  0  0  0  0  0  0  0  0  0  0  0
   11.4025    0.5301    2.6954 H   0  0  0  0  0  0  0  0  0  0  0  0
   12.2932   -0.6033    1.6753 H   0  0  0  0  0  0  0  0  0  0  0  0
   -6.2862   -1.1197    0.8584 H   0  0  0  0  0  0  0  0  0  0  0  0
   -6.8877    1.6761   -0.3238 H   0  0  0  0  0  0  0  0  0  0  0  0
   -9.2248    2.3363   -0.0950 H   0  0  0  0  0  0  0  0  0  0  0  0
   -8.1476   -1.8501    0.0477 H   0  0  0  0  0  0  0  0  0  0  0  0
  -10.4958   -2.4611   -0.0040 H   0  0  0  0  0  0  0  0  0  0  0  0
  -12.5827   -1.7561   -0.0983 H   0  0  0  0  0  0  0  0  0  0  0  0
  -11.4915    2.8595    1.6407 H   0  0  0  0  0  0  0  0  0  0  0  0
  -12.7644    1.5949    1.6420 H   0  0  0  0  0  0  0  0  0  0  0  0
  -13.0529    3.1573    0.8453 H   0  0  0  0  0  0  0  0  0  0  0  0
  1 24  1  0  0  0  0
  1 29  1  0  0  0  0
  2 29  2  0  0  0  0
  3 39  1  0  0  0  0
  3 42  1  0  0  0  0
  4 41  1  0  0  0  0
  4 97  1  0  0  0  0
  5  6  1  0  0  0  0
  5 10  1  0  0  0  0
  5 11  1  0  0  0  0
  5 19  1  0  0  0  0
  6  7  1  0  0  0  0
  6 14  1  0  0  0  0
  6 43  1  0  0  0  0
  7  8  1  0  0  0  0
  7 15  1  0  0  0  0
  7 44  1  0  0  0  0
  8  9  1  0  0  0  0
  8 13  1  0  0  0  0
  8 45  1  0  0  0  0
  9 12  1  0  0  0  0
  9 18  1  0  0  0  0
  9 22  1  0  0  0  0
 10 16  1  0  0  0  0
 10 20  1  0  0  0  0
 10 46  1  0  0  0  0
 11 13  1  0  0  0  0
 11 47  1  0  0  0  0
 11 48  1  0  0  0  0
 12 17  1  0  0  0  0
 12 21  1  0  0  0  0
 12 49  1  0  0  0  0
 13 50  1  0  0  0  0
 13 51  1  0  0  0  0
 14 16  1  0  0  0  0
 14 52  1  0  0  0  0
 14 53  1  0  0  0  0
 15 17  1  0  0  0  0
 15 54  1  0  0  0  0
 15 55  1  0  0  0  0
 16 56  1  0  0  0  0
 16 57  1  0  0  0  0
 17 58  1  0  0  0  0
 17 59  1  0  0  0  0
 18 23  1  0  0  0  0
 18 60  1  0  0  0  0
 18 61  1  0  0  0  0
 19 62  1  0  0  0  0
 19 63  1  0  0  0  0
 19 64  1  0  0  0  0
 20 25  1  0  0  0  0
 20 26  1  0  0  0  0
 20 65  1  0  0  0  0
 21 24  1  0  0  0  0
 21 66  1  0  0  0  0
 21 67  1  0  0  0  0
 22 68  1  0  0  0  0
 22 69  1  0  0  0  0
 22 70  1  0  0  0  0
 23 24  1  0  0  0  0
 23 71  1  0  0  0  0
 23 72  1  0  0  0  0
 24 73  1  0  0  0  0
 25 27  1  0  0  0  0
 25 74  1  0  0  0  0
 25 75  1  0  0  0  0
 26 76  1  0  0  0  0
 26 77  1  0  0  0  0
 26 78  1  0  0  0  0
 27 28  1  0  0  0  0
 27 79  1  0  0  0  0
 27 80  1  0  0  0  0
 28 30  1  0  0  0  0
 28 31  1  0  0  0  0
 28 81  1  0  0  0  0
 29 32  1  0  0  0  0
 30 33  1  0  0  0  0
 30 34  1  0  0  0  0
 30 82  1  0  0  0  0
 31 83  1  0  0  0  0
 31 84  1  0  0  0  0
 31 85  1  0  0  0  0
 32 35  2  0  0  0  0
 32 92  1  0  0  0  0
 33 86  1  0  0  0  0
 33 87  1  0  0  0  0
 33 88  1  0  0  0  0
 34 89  1  0  0  0  0
 34 90  1  0  0  0  0
 34 91  1  0  0  0  0
 35 36  1  0  0  0  0
 35 93  1  0  0  0  0
 36 37  2  0  0  0  0
 36 38  1  0  0  0  0
 37 39  1  0  0  0  0
 37 94  1  0  0  0  0
 38 40  2  0  0  0  0
 38 95  1  0  0  0  0
 39 41  2  0  0  0  0
 40 41  1  0  0  0  0
 40 96  1  0  0  0  0
 42 98  1  0  0  0  0
 42 99  1  0  0  0  0
 42100  1  0  0  0  0
M  END
> <PUBCHEM_COMPOUND_CID>
13786591

> <PUBCHEM_CONFORMER_RMSD>
1.2

> <PUBCHEM_CONFORMER_DIVERSEORDER>
4
24
86
65
43
105
45
25
89
41
102
61
30
78
44
46
14
20
11
32
72
6
34
64
35
74
85
36
100
77
70
42
103
106
31
5
29
40
84
39
88
23
82
26
91
81
7
92
50
8
17
38
83
37
18
93
71
87
95
21
33
94
48
12
58
27
10
13
108
15
68
49
99
3
62
57
98
90
75
19
22
1
67
56
52
9
63
55
28
2
54
79
69
104
53
80
51
101
97
107
66
76
47
73
96
59
60
16

> <PUBCHEM_MMFF94_PARTIAL_CHARGES>
21
1 -0.43
2 -0.57
24 0.28
29 0.71
3 -0.36
32 -0.14
35 -0.18
36 0.03
37 -0.15
38 -0.15
39 0.08
4 -0.53
40 -0.15
41 0.08
42 0.28
92 0.15
93 0.15
94 0.15
95 0.15
96 0.15
97 0.45

> <PUBCHEM_EFFECTIVE_ROTOR_COUNT>
12.2

> <PUBCHEM_PHARMACOPHORE_FEATURES>
12
1 2 acceptor
1 26 hydrophobe
1 3 acceptor
1 31 hydrophobe
1 4 donor
3 30 33 34 hydrophobe
5 20 25 27 28 30 hydrophobe
5 5 6 10 14 16 rings
6 36 37 38 39 40 41 rings
6 5 6 7 8 11 13 rings
6 7 8 9 12 15 17 rings
6 9 12 18 21 23 24 rings

> <PUBCHEM_HEAVY_ATOM_COUNT>
42

> <PUBCHEM_ATOM_DEF_STEREO_COUNT>
10

> <PUBCHEM_ATOM_UDEF_STEREO_COUNT>
0

> <PUBCHEM_BOND_DEF_STEREO_COUNT>
1

> <PUBCHEM_BOND_UDEF_STEREO_COUNT>
0

> <PUBCHEM_ISOTOPIC_ATOM_COUNT>
0

> <PUBCHEM_COMPONENT_COUNT>
1

> <PUBCHEM_CACTVS_TAUTO_COUNT>
3

> <PUBCHEM_CONFORMER_ID>
00D25DDF00000004

> <PUBCHEM_MMFF94_ENERGY>
149.4729

> <PUBCHEM_FEATURE_SELFOVERLAP>
61.002

> <PUBCHEM_SHAPE_FINGERPRINT>
11061554 47 18260544498561470613
11409948 35 12829474940436293320
11443803 9 18408604768606638483
11476731 38 14333414454336924884
12013929 2 8142088658953772119
12559415 90 18411417281412896337
12664476 115 17676486155264130541
12741549 16 15574431029531668414
12838862 33 17675918811385072146
131240 100 18202001075176040587
14251920 17 18131349735093126264
14344974 52 18202281432996893899
15061470 23 18343019974410759953
15065858 18 18413390917469118455
15247644 1 11241970377907908257
15289351 153 17240199924752463029
15343295 20 18113336424233587468
15347591 1 16735258125742297823
15840311 113 17313394434586728446
16728433 110 18413669123385087312
20105231 36 10303818674651411568
21057603 43 18261386699906598626
21792934 111 17967814968711414556
335352 9 17603313643445351110
4874694 18 18260832604719824931
5028188 123 18060697304790151975
5381727 24 16877947161727992411
57303763 39 14764337289673952045
6081469 158 15068342306491633943
9663363 56 16877940546644685444
9937071 3 12468354653103511640

> <PUBCHEM_SHAPE_MULTIPOLES>
840.86
53.17
2.11
1.55
72.02
0.33
0.3
28.77
-14.16
-1.27
-0.49
-3.01
0.13
0.89

> <PUBCHEM_SHAPE_SELFOVERLAP>
1761.262

> <PUBCHEM_SHAPE_VOLUME>
474.4

> <PUBCHEM_COORDINATE_TYPE>
2
5
10

$$$$
