347867
  -OEChem-11191801302D

 39 38  0     1  0  0  0  0  0999 V2000
    8.0622    1.3450    0.0000 O   0  0  0  0  0  0  0  0  0  0  0  0
    5.4641   -0.1550    0.0000 O   0  0  0  0  0  0  0  0  0  0  0  0
    4.5981    1.3450    0.0000 O   0  0  0  0  0  0  0  0  0  0  0  0
    7.1962   -0.1550    0.0000 C   0  0  3  0  0  0  0  0  0  0  0  0
    8.0622    0.3450    0.0000 C   0  0  3  0  0  0  0  0  0  0  0  0
    8.9282   -0.1550    0.0000 C   0  0  0  0  0  0  0  0  0  0  0  0
    7.1962   -1.1550    0.0000 C   0  0  0  0  0  0  0  0  0  0  0  0
    6.3301    0.3450    0.0000 C   0  0  0  0  0  0  0  0  0  0  0  0
    9.7942    0.3450    0.0000 C   0  0  0  0  0  0  0  0  0  0  0  0
    6.3301   -1.6550    0.0000 C   0  0  0  0  0  0  0  0  0  0  0  0
   10.6603   -0.1550    0.0000 C   0  0  0  0  0  0  0  0  0  0  0  0
    4.5981    0.3450    0.0000 C   0  0  0  0  0  0  0  0  0  0  0  0
    3.7320   -0.1550    0.0000 C   0  0  0  0  0  0  0  0  0  0  0  0
    2.8660    0.3450    0.0000 C   0  0  0  0  0  0  0  0  0  0  0  0
    2.0000   -0.1550    0.0000 C   0  0  0  0  0  0  0  0  0  0  0  0
    6.4600   -0.5800    0.0000 H   0  0  0  0  0  0  0  0  0  0  0  0
    7.3261    0.7700    0.0000 H   0  0  0  0  0  0  0  0  0  0  0  0
    8.5297   -0.6299    0.0000 H   0  0  0  0  0  0  0  0  0  0  0  0
    9.3267   -0.6299    0.0000 H   0  0  0  0  0  0  0  0  0  0  0  0
    7.4082   -1.7376    0.0000 H   0  0  0  0  0  0  0  0  0  0  0  0
    7.8067   -1.0473    0.0000 H   0  0  0  0  0  0  0  0  0  0  0  0
    6.7287    0.8199    0.0000 H   0  0  0  0  0  0  0  0  0  0  0  0
    5.9316    0.8199    0.0000 H   0  0  0  0  0  0  0  0  0  0  0  0
   10.1928    0.8199    0.0000 H   0  0  0  0  0  0  0  0  0  0  0  0
    9.3957    0.8199    0.0000 H   0  0  0  0  0  0  0  0  0  0  0  0
    6.0201   -1.1181    0.0000 H   0  0  0  0  0  0  0  0  0  0  0  0
    5.7932   -1.9650    0.0000 H   0  0  0  0  0  0  0  0  0  0  0  0
    6.6401   -2.1919    0.0000 H   0  0  0  0  0  0  0  0  0  0  0  0
    8.5991    1.6550    0.0000 H   0  0  0  0  0  0  0  0  0  0  0  0
   10.3503   -0.6919    0.0000 H   0  0  0  0  0  0  0  0  0  0  0  0
   11.1972   -0.4650    0.0000 H   0  0  0  0  0  0  0  0  0  0  0  0
   10.9703    0.3819    0.0000 H   0  0  0  0  0  0  0  0  0  0  0  0
    3.3335   -0.6299    0.0000 H   0  0  0  0  0  0  0  0  0  0  0  0
    4.1306   -0.6299    0.0000 H   0  0  0  0  0  0  0  0  0  0  0  0
    3.2646    0.8199    0.0000 H   0  0  0  0  0  0  0  0  0  0  0  0
    2.4675    0.8199    0.0000 H   0  0  0  0  0  0  0  0  0  0  0  0
    1.6900    0.3819    0.0000 H   0  0  0  0  0  0  0  0  0  0  0  0
    1.4631   -0.4650    0.0000 H   0  0  0  0  0  0  0  0  0  0  0  0
    2.3100   -0.6919    0.0000 H   0  0  0  0  0  0  0  0  0  0  0  0
  1  5  1  0  0  0  0
  1 29  1  0  0  0  0
  2  8  1  0  0  0  0
  2 12  1  0  0  0  0
  3 12  2  0  0  0  0
  4  5  1  0  0  0  0
  4  7  1  0  0  0  0
  4  8  1  0  0  0  0
  4 16  1  0  0  0  0
  5  6  1  0  0  0  0
  5 17  1  0  0  0  0
  6  9  1  0  0  0  0
  6 18  1  0  0  0  0
  6 19  1  0  0  0  0
  7 10  1  0  0  0  0
  7 20  1  0  0  0  0
  7 21  1  0  0  0  0
  8 22  1  0  0  0  0
  8 23  1  0  0  0  0
  9 11  1  0  0  0  0
  9 24  1  0  0  0  0
  9 25  1  0  0  0  0
 10 26  1  0  0  0  0
 10 27  1  0  0  0  0
 10 28  1  0  0  0  0
 11 30  1  0  0  0  0
 11 31  1  0  0  0  0
 11 32  1  0  0  0  0
 12 13  1  0  0  0  0
 13 14  1  0  0  0  0
 13 33  1  0  0  0  0
 13 34  1  0  0  0  0
 14 15  1  0  0  0  0
 14 35  1  0  0  0  0
 14 36  1  0  0  0  0
 15 37  1  0  0  0  0
 15 38  1  0  0  0  0
 15 39  1  0  0  0  0
M  END
> <PUBCHEM_COMPOUND_CID>
347867

> <PUBCHEM_COMPOUND_CANONICALIZED>
1

> <PUBCHEM_CACTVS_COMPLEXITY>
168

> <PUBCHEM_CACTVS_HBOND_ACCEPTOR>
3

> <PUBCHEM_CACTVS_HBOND_DONOR>
1

> <PUBCHEM_CACTVS_ROTATABLE_BOND>
9

> <PUBCHEM_CACTVS_SUBSKEYS>
AAADceBwMAAAAAAAAAAAAAAAAAAAAAAAAAAAAAAAAAAAAAAAAAAAGgAACAAADRSggAICCAAABgAIAACQCAAAAAAAAAAAAAEAAAAAEBIAAAACQAAFAAAAAAGAwAAOAAAAAAAAAAAAAAAAAAAAAAAAAAAAAA==

> <PUBCHEM_IUPAC_OPENEYE_NAME>
(2-ethyl-3-hydroxy-hexyl) butanoate

> <PUBCHEM_IUPAC_CAS_NAME>
butanoic acid (2-ethyl-3-hydroxyhexyl) ester

> <PUBCHEM_IUPAC_NAME>
(2-ethyl-3-hydroxyhexyl) butanoate

> <PUBCHEM_IUPAC_SYSTEMATIC_NAME>
(2-ethyl-3-oxidanyl-hexyl) butanoate

> <PUBCHEM_IUPAC_TRADITIONAL_NAME>
butyric acid (2-ethyl-3-hydroxy-hexyl) ester

> <PUBCHEM_IUPAC_INCHI>
InChI=1S/C12H24O3/c1-4-7-11(13)10(6-3)9-15-12(14)8-5-2/h10-11,13H,4-9H2,1-3H3

> <PUBCHEM_IUPAC_INCHIKEY>
LDXCVXVVGCHCKA-UHFFFAOYSA-N

> <PUBCHEM_XLOGP3_AA>
2.7

> <PUBCHEM_EXACT_MASS>
216.173

> <PUBCHEM_MOLECULAR_FORMULA>
C12H24O3

> <PUBCHEM_MOLECULAR_WEIGHT>
216.321

> <PUBCHEM_OPENEYE_CAN_SMILES>
CCCC(C(CC)COC(=O)CCC)O

> <PUBCHEM_OPENEYE_ISO_SMILES>
CCCC(C(CC)COC(=O)CCC)O

> <PUBCHEM_CACTVS_TPSA>
46.5

> <PUBCHEM_MONOISOTOPIC_WEIGHT>
216.173

> <PUBCHEM_TOTAL_CHARGE>
0

> <PUBCHEM_HEAVY_ATOM_COUNT>
15

> <PUBCHEM_ATOM_DEF_STEREO_COUNT>
0

> <PUBCHEM_ATOM_UDEF_STEREO_COUNT>
2

> <PUBCHEM_BOND_DEF_STEREO_COUNT>
0

> <PUBCHEM_BOND_UDEF_STEREO_COUNT>
0

> <PUBCHEM_ISOTOPIC_ATOM_COUNT>
0

> <PUBCHEM_COMPONENT_COUNT>
1

> <PUBCHEM_CACTVS_TAUTO_COUNT>
1

> <PUBCHEM_COORDINATE_TYPE>
1
5
255

> <PUBCHEM_BONDANNOTATIONS>
4  16  3
5  17  3

$$$$
