5282804
  -OEChem-11191801372D

 55 54  0     0  0  0  0  0  0999 V2000
    2.5369    2.9400    0.0000 O   0  0  0  0  0  0  0  0  0  0  0  0
    3.4030    1.4400    0.0000 O   0  0  0  0  0  0  0  0  0  0  0  0
    7.7331    2.9400    0.0000 C   0  0  0  0  0  0  0  0  0  0  0  0
    6.8671    2.4400    0.0000 C   0  0  0  0  0  0  0  0  0  0  0  0
    8.5991    2.4400    0.0000 C   0  0  0  0  0  0  0  0  0  0  0  0
    6.0010    2.9400    0.0000 C   0  0  0  0  0  0  0  0  0  0  0  0
    9.4651    2.9400    0.0000 C   0  0  0  0  0  0  0  0  0  0  0  0
    5.1350    2.4400    0.0000 C   0  0  0  0  0  0  0  0  0  0  0  0
   10.3312    2.4400    0.0000 C   0  0  0  0  0  0  0  0  0  0  0  0
    4.2690    2.9400    0.0000 C   0  0  0  0  0  0  0  0  0  0  0  0
   12.0632   -1.5600    0.0000 C   0  0  0  0  0  0  0  0  0  0  0  0
   11.1972    2.9400    0.0000 C   0  0  0  0  0  0  0  0  0  0  0  0
   11.1972   -2.0600    0.0000 C   0  0  0  0  0  0  0  0  0  0  0  0
   12.0632   -0.5600    0.0000 C   0  0  0  0  0  0  0  0  0  0  0  0
   11.1972   -3.0600    0.0000 C   0  0  0  0  0  0  0  0  0  0  0  0
   12.0632    2.4400    0.0000 C   0  0  0  0  0  0  0  0  0  0  0  0
   12.0632    1.4400    0.0000 C   0  0  0  0  0  0  0  0  0  0  0  0
    3.4030    2.4400    0.0000 C   0  0  0  0  0  0  0  0  0  0  0  0
   12.9292   -0.0600    0.0000 C   0  0  0  0  0  0  0  0  0  0  0  0
   12.9292    0.9400    0.0000 C   0  0  0  0  0  0  0  0  0  0  0  0
   10.3312   -3.5600    0.0000 C   0  0  0  0  0  0  0  0  0  0  0  0
    8.1316    3.4150    0.0000 H   0  0  0  0  0  0  0  0  0  0  0  0
    7.3346    3.4150    0.0000 H   0  0  0  0  0  0  0  0  0  0  0  0
    6.4685    1.9650    0.0000 H   0  0  0  0  0  0  0  0  0  0  0  0
    7.2656    1.9650    0.0000 H   0  0  0  0  0  0  0  0  0  0  0  0
    8.2006    1.9650    0.0000 H   0  0  0  0  0  0  0  0  0  0  0  0
    8.9976    1.9650    0.0000 H   0  0  0  0  0  0  0  0  0  0  0  0
    6.3996    3.4150    0.0000 H   0  0  0  0  0  0  0  0  0  0  0  0
    5.6025    3.4150    0.0000 H   0  0  0  0  0  0  0  0  0  0  0  0
    9.8637    3.4150    0.0000 H   0  0  0  0  0  0  0  0  0  0  0  0
    9.0666    3.4150    0.0000 H   0  0  0  0  0  0  0  0  0  0  0  0
    4.7365    1.9650    0.0000 H   0  0  0  0  0  0  0  0  0  0  0  0
    5.5335    1.9650    0.0000 H   0  0  0  0  0  0  0  0  0  0  0  0
    9.9326    1.9650    0.0000 H   0  0  0  0  0  0  0  0  0  0  0  0
   10.7297    1.9650    0.0000 H   0  0  0  0  0  0  0  0  0  0  0  0
    4.6675    3.4150    0.0000 H   0  0  0  0  0  0  0  0  0  0  0  0
    3.8705    3.4150    0.0000 H   0  0  0  0  0  0  0  0  0  0  0  0
   12.2753   -2.1426    0.0000 H   0  0  0  0  0  0  0  0  0  0  0  0
   12.6738   -1.4523    0.0000 H   0  0  0  0  0  0  0  0  0  0  0  0
   11.1972    3.5600    0.0000 H   0  0  0  0  0  0  0  0  0  0  0  0
   10.9851   -1.4774    0.0000 H   0  0  0  0  0  0  0  0  0  0  0  0
   10.5866   -2.1677    0.0000 H   0  0  0  0  0  0  0  0  0  0  0  0
   11.8512    0.0226    0.0000 H   0  0  0  0  0  0  0  0  0  0  0  0
   11.4526   -0.6677    0.0000 H   0  0  0  0  0  0  0  0  0  0  0  0
   11.4092   -3.6426    0.0000 H   0  0  0  0  0  0  0  0  0  0  0  0
   11.8078   -2.9523    0.0000 H   0  0  0  0  0  0  0  0  0  0  0  0
   12.6002    2.7500    0.0000 H   0  0  0  0  0  0  0  0  0  0  0  0
   11.4526    1.5477    0.0000 H   0  0  0  0  0  0  0  0  0  0  0  0
   11.8512    0.8574    0.0000 H   0  0  0  0  0  0  0  0  0  0  0  0
   13.4662   -0.3700    0.0000 H   0  0  0  0  0  0  0  0  0  0  0  0
   13.4662    1.2500    0.0000 H   0  0  0  0  0  0  0  0  0  0  0  0
   10.0212   -3.0231    0.0000 H   0  0  0  0  0  0  0  0  0  0  0  0
    9.7942   -3.8700    0.0000 H   0  0  0  0  0  0  0  0  0  0  0  0
   10.6412   -4.0969    0.0000 H   0  0  0  0  0  0  0  0  0  0  0  0
    2.0000    2.6300    0.0000 H   0  0  0  0  0  0  0  0  0  0  0  0
  1 18  1  0  0  0  0
  1 55  1  0  0  0  0
  2 18  2  0  0  0  0
  3  4  1  0  0  0  0
  3  5  1  0  0  0  0
  3 22  1  0  0  0  0
  3 23  1  0  0  0  0
  4  6  1  0  0  0  0
  4 24  1  0  0  0  0
  4 25  1  0  0  0  0
  5  7  1  0  0  0  0
  5 26  1  0  0  0  0
  5 27  1  0  0  0  0
  6  8  1  0  0  0  0
  6 28  1  0  0  0  0
  6 29  1  0  0  0  0
  7  9  1  0  0  0  0
  7 30  1  0  0  0  0
  7 31  1  0  0  0  0
  8 10  1  0  0  0  0
  8 32  1  0  0  0  0
  8 33  1  0  0  0  0
  9 12  1  0  0  0  0
  9 34  1  0  0  0  0
  9 35  1  0  0  0  0
 10 18  1  0  0  0  0
 10 36  1  0  0  0  0
 10 37  1  0  0  0  0
 11 13  1  0  0  0  0
 11 14  1  0  0  0  0
 11 38  1  0  0  0  0
 11 39  1  0  0  0  0
 12 16  2  0  0  0  0
 12 40  1  0  0  0  0
 13 15  1  0  0  0  0
 13 41  1  0  0  0  0
 13 42  1  0  0  0  0
 14 19  1  0  0  0  0
 14 43  1  0  0  0  0
 14 44  1  0  0  0  0
 15 21  1  0  0  0  0
 15 45  1  0  0  0  0
 15 46  1  0  0  0  0
 16 17  1  0  0  0  0
 16 47  1  0  0  0  0
 17 20  1  0  0  0  0
 17 48  1  0  0  0  0
 17 49  1  0  0  0  0
 19 20  2  0  0  0  0
 19 50  1  0  0  0  0
 20 51  1  0  0  0  0
 21 52  1  0  0  0  0
 21 53  1  0  0  0  0
 21 54  1  0  0  0  0
M  END
> <PUBCHEM_COMPOUND_CID>
5282804

> <PUBCHEM_COMPOUND_CANONICALIZED>
1

> <PUBCHEM_CACTVS_COMPLEXITY>
279

> <PUBCHEM_CACTVS_HBOND_ACCEPTOR>
2

> <PUBCHEM_CACTVS_HBOND_DONOR>
1

> <PUBCHEM_CACTVS_ROTATABLE_BOND>
15

> <PUBCHEM_CACTVS_SUBSKEYS>
AAADcfB4MAAAAAAAAAAAAAAAAAAAAAAAAAAAAAAAAAAAAAAAAAAAGgAACAAACACAgAACCAAAAgCIACDSCAAAAAAgAAAICAEAAAgAABIAAQAAQAAEgAAIAAOIyKCAAAAAAAAAAAAAAAAAAAAAAAAAAAAAAA==

> <PUBCHEM_IUPAC_OPENEYE_NAME>
(10Z,13Z)-nonadeca-10,13-dienoic acid

> <PUBCHEM_IUPAC_CAS_NAME>
(10Z,13Z)-nonadeca-10,13-dienoic acid

> <PUBCHEM_IUPAC_NAME>
(10Z,13Z)-nonadeca-10,13-dienoic acid

> <PUBCHEM_IUPAC_SYSTEMATIC_NAME>
(10Z,13Z)-nonadeca-10,13-dienoic acid

> <PUBCHEM_IUPAC_TRADITIONAL_NAME>
(10Z,13Z)-nonadeca-10,13-dienoic acid

> <PUBCHEM_IUPAC_INCHI>
InChI=1S/C19H34O2/c1-2-3-4-5-6-7-8-9-10-11-12-13-14-15-16-17-18-19(20)21/h6-7,9-10H,2-5,8,11-18H2,1H3,(H,20,21)/b7-6-,10-9-

> <PUBCHEM_IUPAC_INCHIKEY>
FLYBGKXSHCVONZ-HZJYTTRNSA-N

> <PUBCHEM_XLOGP3>
7.3

> <PUBCHEM_EXACT_MASS>
294.256

> <PUBCHEM_MOLECULAR_FORMULA>
C19H34O2

> <PUBCHEM_MOLECULAR_WEIGHT>
294.479

> <PUBCHEM_OPENEYE_CAN_SMILES>
CCCCCC=CCC=CCCCCCCCCC(=O)O

> <PUBCHEM_OPENEYE_ISO_SMILES>
CCCCC/C=C\C/C=C\CCCCCCCCC(=O)O

> <PUBCHEM_CACTVS_TPSA>
37.3

> <PUBCHEM_MONOISOTOPIC_WEIGHT>
294.256

> <PUBCHEM_TOTAL_CHARGE>
0

> <PUBCHEM_HEAVY_ATOM_COUNT>
21

> <PUBCHEM_ATOM_DEF_STEREO_COUNT>
0

> <PUBCHEM_ATOM_UDEF_STEREO_COUNT>
0

> <PUBCHEM_BOND_DEF_STEREO_COUNT>
2

> <PUBCHEM_BOND_UDEF_STEREO_COUNT>
0

> <PUBCHEM_ISOTOPIC_ATOM_COUNT>
0

> <PUBCHEM_COMPONENT_COUNT>
1

> <PUBCHEM_CACTVS_TAUTO_COUNT>
1

> <PUBCHEM_COORDINATE_TYPE>
1
5
255

$$$$
