17574188
  -OEChem-11191801372D

 39 42  0     0  0  0  0  0  0999 V2000
    7.4223   -1.5259    0.0000 S   0  0  0  0  0  0  0  0  0  0  0  0
    4.4374    0.1214    0.0000 F   0  0  0  0  0  0  0  0  0  0  0  0
    4.7962    1.2529    0.0000 O   0  0  0  0  0  0  0  0  0  0  0  0
    5.6622   -1.2471    0.0000 N   0  0  0  0  0  0  0  0  0  0  0  0
    5.6622   -0.2471    0.0000 N   0  0  0  0  0  0  0  0  0  0  0  0
    6.1622   -2.7860    0.0000 N   0  0  0  0  0  0  0  0  0  0  0  0
    5.1622   -2.7860    0.0000 N   0  0  0  0  0  0  0  0  0  0  0  0
    7.3942    1.7529    0.0000 C   0  0  0  0  0  0  0  0  0  0  0  0
    6.5282    1.2529    0.0000 C   0  0  0  0  0  0  0  0  0  0  0  0
    7.3942    2.7529    0.0000 C   0  0  0  0  0  0  0  0  0  0  0  0
    4.8532   -1.8349    0.0000 C   0  0  0  0  0  0  0  0  0  0  0  0
    6.5282    0.2529    0.0000 C   0  0  0  0  0  0  0  0  0  0  0  0
    3.9021   -1.5259    0.0000 C   0  0  0  0  0  0  0  0  0  0  0  0
    5.6622    1.7529    0.0000 C   0  0  0  0  0  0  0  0  0  0  0  0
    8.2882    1.2182    0.0000 C   0  0  0  0  0  0  0  0  0  0  0  0
    6.5282    3.2529    0.0000 C   0  0  0  0  0  0  0  0  0  0  0  0
    8.2882    3.2876    0.0000 C   0  0  0  0  0  0  0  0  0  0  0  0
    6.4712   -1.8349    0.0000 C   0  0  0  0  0  0  0  0  0  0  0  0
    5.6622    2.7529    0.0000 C   0  0  0  0  0  0  0  0  0  0  0  0
    9.1942    1.7321    0.0000 C   0  0  0  0  0  0  0  0  0  0  0  0
    9.1942    2.7737    0.0000 C   0  0  0  0  0  0  0  0  0  0  0  0
    3.6942   -0.5477    0.0000 C   0  0  0  0  0  0  0  0  0  0  0  0
    3.1590   -2.1950    0.0000 C   0  0  0  0  0  0  0  0  0  0  0  0
    2.7431   -0.2387    0.0000 C   0  0  0  0  0  0  0  0  0  0  0  0
    2.2079   -1.8860    0.0000 C   0  0  0  0  0  0  0  0  0  0  0  0
    2.0000   -0.9078    0.0000 C   0  0  0  0  0  0  0  0  0  0  0  0
    7.0652   -0.0571    0.0000 H   0  0  0  0  0  0  0  0  0  0  0  0
    5.1252    0.0629    0.0000 H   0  0  0  0  0  0  0  0  0  0  0  0
    8.2810    0.5983    0.0000 H   0  0  0  0  0  0  0  0  0  0  0  0
    6.5282    3.8729    0.0000 H   0  0  0  0  0  0  0  0  0  0  0  0
    8.2810    3.9075    0.0000 H   0  0  0  0  0  0  0  0  0  0  0  0
    5.1252    3.0629    0.0000 H   0  0  0  0  0  0  0  0  0  0  0  0
    9.7300    1.4200    0.0000 H   0  0  0  0  0  0  0  0  0  0  0  0
    9.7300    3.0858    0.0000 H   0  0  0  0  0  0  0  0  0  0  0  0
    3.2879   -2.8015    0.0000 H   0  0  0  0  0  0  0  0  0  0  0  0
    6.5266   -3.2876    0.0000 H   0  0  0  0  0  0  0  0  0  0  0  0
    2.6142    0.3677    0.0000 H   0  0  0  0  0  0  0  0  0  0  0  0
    1.7472   -2.3009    0.0000 H   0  0  0  0  0  0  0  0  0  0  0  0
    1.4103   -0.7163    0.0000 H   0  0  0  0  0  0  0  0  0  0  0  0
  1 18  2  0  0  0  0
  2 22  1  0  0  0  0
  3 14  2  0  0  0  0
  4  5  1  0  0  0  0
  4 11  1  0  0  0  0
  4 18  1  0  0  0  0
  5 12  1  0  0  0  0
  5 28  1  0  0  0  0
  6  7  1  0  0  0  0
  6 18  1  0  0  0  0
  6 36  1  0  0  0  0
  7 11  2  0  0  0  0
  8  9  1  0  0  0  0
  8 10  1  0  0  0  0
  8 15  2  0  0  0  0
  9 12  2  0  0  0  0
  9 14  1  0  0  0  0
 10 16  1  0  0  0  0
 10 17  2  0  0  0  0
 11 13  1  0  0  0  0
 12 27  1  0  0  0  0
 13 22  1  0  0  0  0
 13 23  2  0  0  0  0
 14 19  1  0  0  0  0
 15 20  1  0  0  0  0
 15 29  1  0  0  0  0
 16 19  2  0  0  0  0
 16 30  1  0  0  0  0
 17 21  1  0  0  0  0
 17 31  1  0  0  0  0
 19 32  1  0  0  0  0
 20 21  2  0  0  0  0
 20 33  1  0  0  0  0
 21 34  1  0  0  0  0
 22 24  2  0  0  0  0
 23 25  1  0  0  0  0
 23 35  1  0  0  0  0
 24 26  1  0  0  0  0
 24 37  1  0  0  0  0
 25 26  2  0  0  0  0
 25 38  1  0  0  0  0
 26 39  1  0  0  0  0
M  END
> <PUBCHEM_COMPOUND_CID>
17574188

> <PUBCHEM_COMPOUND_CANONICALIZED>
1

> <PUBCHEM_CACTVS_COMPLEXITY>
689

> <PUBCHEM_CACTVS_HBOND_ACCEPTOR>
5

> <PUBCHEM_CACTVS_HBOND_DONOR>
2

> <PUBCHEM_CACTVS_ROTATABLE_BOND>
3

> <PUBCHEM_CACTVS_SUBSKEYS>
AAADccB7oQBAAAAAAAAAAAAAAAAAAQAAAAAwYIAAAAAAAACBQAAAHwQYAAAADATBmAwxAIJiAACsAqJ2YACSAAAgAAkdqIEgBNiIILKAlRGEIAhwiAIIiccYiICOgAAAAAAQAAAAAAAAACAAAAAAAAAAAA==

> <PUBCHEM_IUPAC_OPENEYE_NAME>
(1Z)-1-[[[3-(2-fluorophenyl)-5-thioxo-1H-1,2,4-triazol-4-yl]amino]methylene]naphthalen-2-one

> <PUBCHEM_IUPAC_CAS_NAME>
(1Z)-1-[[[3-(2-fluorophenyl)-5-sulfanylidene-1H-1,2,4-triazol-4-yl]amino]methylidene]-2-naphthalenone

> <PUBCHEM_IUPAC_NAME>
(1Z)-1-[[[3-(2-fluorophenyl)-5-sulfanylidene-1H-1,2,4-triazol-4-yl]amino]methylidene]naphthalen-2-one

> <PUBCHEM_IUPAC_SYSTEMATIC_NAME>
(1Z)-1-[[[3-(2-fluorophenyl)-5-sulfanylidene-1H-1,2,4-triazol-4-yl]amino]methylidene]naphthalen-2-one

> <PUBCHEM_IUPAC_TRADITIONAL_NAME>
(1Z)-1-[[[3-(2-fluorophenyl)-5-thioxo-1H-1,2,4-triazol-4-yl]amino]methylene]naphthalen-2-one

> <PUBCHEM_IUPAC_INCHI>
InChI=1S/C19H13FN4OS/c20-16-8-4-3-7-14(16)18-22-23-19(26)24(18)21-11-15-13-6-2-1-5-12(13)9-10-17(15)25/h1-11,21H,(H,23,26)/b15-11-

> <PUBCHEM_IUPAC_INCHIKEY>
BQKMFICSYZDHFQ-PTNGSMBKSA-N

> <PUBCHEM_XLOGP3_AA>
3.8

> <PUBCHEM_EXACT_MASS>
364.079

> <PUBCHEM_MOLECULAR_FORMULA>
C19H13FN4OS

> <PUBCHEM_MOLECULAR_WEIGHT>
364.398

> <PUBCHEM_OPENEYE_CAN_SMILES>
C1=CC=C2C(=C1)C=CC(=O)C2=CNN3C(=NNC3=S)C4=CC=CC=C4F

> <PUBCHEM_OPENEYE_ISO_SMILES>
C1=CC=C\2C(=C1)C=CC(=O)/C2=C\NN3C(=NNC3=S)C4=CC=CC=C4F

> <PUBCHEM_CACTVS_TPSA>
88.8

> <PUBCHEM_MONOISOTOPIC_WEIGHT>
364.079

> <PUBCHEM_TOTAL_CHARGE>
0

> <PUBCHEM_HEAVY_ATOM_COUNT>
26

> <PUBCHEM_ATOM_DEF_STEREO_COUNT>
0

> <PUBCHEM_ATOM_UDEF_STEREO_COUNT>
0

> <PUBCHEM_BOND_DEF_STEREO_COUNT>
1

> <PUBCHEM_BOND_UDEF_STEREO_COUNT>
0

> <PUBCHEM_ISOTOPIC_ATOM_COUNT>
0

> <PUBCHEM_COMPONENT_COUNT>
1

> <PUBCHEM_CACTVS_TAUTO_COUNT>
8

> <PUBCHEM_COORDINATE_TYPE>
1
5
255

> <PUBCHEM_BONDANNOTATIONS>
10  17  8
13  22  8
13  23  8
15  20  8
17  21  8
20  21  8
22  24  8
23  25  8
24  26  8
25  26  8
4  11  8
4  18  8
6  18  8
6  7  8
7  11  8
8  10  8
8  15  8

$$$$
