73599
  -OEChem-11191801372D

 86 90  0     1  0  0  0  0  0999 V2000
    7.0628    2.0442    0.0000 O   0  0  0  0  0  0  0  0  0  0  0  0
    6.1847   -3.5250    0.0000 O   0  0  0  0  0  0  0  0  0  0  0  0
    8.2352    2.1101    0.0000 O   0  0  0  0  0  0  0  0  0  0  0  0
    2.5357   -2.5081    0.0000 O   0  0  0  0  0  0  0  0  0  0  0  0
    7.0628   -0.9558    0.0000 C   0  0  1  0  0  0  0  0  0  0  0  0
    7.9288   -0.4558    0.0000 C   0  0  1  0  0  0  0  0  0  0  0  0
    6.1968   -0.4558    0.0000 C   0  0  1  0  0  0  0  0  0  0  0  0
    5.2868   -0.9626    0.0000 C   0  0  2  0  0  0  0  0  0  0  0  0
    7.9288    0.5442    0.0000 C   0  0  1  0  0  0  0  0  0  0  0  0
    5.2787   -2.0042    0.0000 C   0  0  1  0  0  0  0  0  0  0  0  0
    8.8750    0.8490    0.0000 C   0  0  2  0  0  0  0  0  0  0  0  0
    7.0789   -1.9973    0.0000 C   0  0  0  0  0  0  0  0  0  0  0  0
    6.1968    0.5442    0.0000 C   0  0  0  0  0  0  0  0  0  0  0  0
    8.8750   -0.7605    0.0000 C   0  0  0  0  0  0  0  0  0  0  0  0
    7.0628    1.0442    0.0000 C   0  0  1  0  0  0  0  0  0  0  0  0
    6.1808   -2.5250    0.0000 C   0  0  1  0  0  0  0  0  0  0  0  0
    9.4586    0.0442    0.0000 C   0  0  0  0  0  0  0  0  0  0  0  0
    4.3433   -2.5539    0.0000 C   0  0  0  0  0  0  0  0  0  0  0  0
    4.3599   -0.3985    0.0000 C   0  0  0  0  0  0  0  0  0  0  0  0
    7.7056   -1.7218    0.0000 C   0  0  0  0  0  0  0  0  0  0  0  0
    8.2709   -1.3954    0.0000 C   0  0  0  0  0  0  0  0  0  0  0  0
    9.1857    1.7995    0.0000 C   0  0  1  0  0  0  0  0  0  0  0  0
    5.2945    0.0374    0.0000 C   0  0  0  0  0  0  0  0  0  0  0  0
    3.4037   -2.0114    0.0000 C   0  0  2  0  0  0  0  0  0  0  0  0
    3.4120   -0.9265    0.0000 C   0  0  0  0  0  0  0  0  0  0  0  0
    3.8467   -3.4219    0.0000 C   0  0  0  0  0  0  0  0  0  0  0  0
    4.8466   -3.4180    0.0000 C   0  0  0  0  0  0  0  0  0  0  0  0
    9.9300    2.4673    0.0000 C   0  0  0  0  0  0  0  0  0  0  0  0
    9.8536    1.0552    0.0000 C   0  0  0  0  0  0  0  0  0  0  0  0
    9.7238    3.4458    0.0000 C   0  0  0  0  0  0  0  0  0  0  0  0
    8.0290    3.0886    0.0000 C   0  0  0  0  0  0  0  0  0  0  0  0
    8.7733    3.7565    0.0000 C   0  0  0  0  0  0  0  0  0  0  0  0
    7.3611    3.8330    0.0000 C   0  0  0  0  0  0  0  0  0  0  0  0
    7.0505    2.8824    0.0000 C   0  0  0  0  0  0  0  0  0  0  0  0
    6.9329   -0.0308    0.0000 H   0  0  0  0  0  0  0  0  0  0  0  0
    8.0188    1.3895    0.0000 H   0  0  0  0  0  0  0  0  0  0  0  0
    5.2820   -2.8542    0.0000 H   0  0  0  0  0  0  0  0  0  0  0  0
    9.7148    0.9808    0.0000 H   0  0  0  0  0  0  0  0  0  0  0  0
    7.2969   -2.5777    0.0000 H   0  0  0  0  0  0  0  0  0  0  0  0
    7.6880   -1.8818    0.0000 H   0  0  0  0  0  0  0  0  0  0  0  0
    5.9847    1.1268    0.0000 H   0  0  0  0  0  0  0  0  0  0  0  0
    5.5862    0.4366    0.0000 H   0  0  0  0  0  0  0  0  0  0  0  0
    8.6240   -1.3274    0.0000 H   0  0  0  0  0  0  0  0  0  0  0  0
    9.4124   -1.0697    0.0000 H   0  0  0  0  0  0  0  0  0  0  0  0
    7.5997    1.3542    0.0000 H   0  0  0  0  0  0  0  0  0  0  0  0
    6.7195   -2.8319    0.0000 H   0  0  0  0  0  0  0  0  0  0  0  0
    9.9195   -0.3705    0.0000 H   0  0  0  0  0  0  0  0  0  0  0  0
    9.9195    0.4590    0.0000 H   0  0  0  0  0  0  0  0  0  0  0  0
    4.7681    0.0681    0.0000 H   0  0  0  0  0  0  0  0  0  0  0  0
    3.9700    0.0835    0.0000 H   0  0  0  0  0  0  0  0  0  0  0  0
    7.2306   -2.1203    0.0000 H   0  0  0  0  0  0  0  0  0  0  0  0
    8.1041   -2.1968    0.0000 H   0  0  0  0  0  0  0  0  0  0  0  0
    8.1805   -1.3233    0.0000 H   0  0  0  0  0  0  0  0  0  0  0  0
    7.6884   -1.6075    0.0000 H   0  0  0  0  0  0  0  0  0  0  0  0
    8.4830   -1.9780    0.0000 H   0  0  0  0  0  0  0  0  0  0  0  0
    8.8535   -1.1833    0.0000 H   0  0  0  0  0  0  0  0  0  0  0  0
    5.9145    0.0326    0.0000 H   0  0  0  0  0  0  0  0  0  0  0  0
    5.2993    0.6573    0.0000 H   0  0  0  0  0  0  0  0  0  0  0  0
    4.6745    0.0421    0.0000 H   0  0  0  0  0  0  0  0  0  0  0  0
    3.4025   -2.6314    0.0000 H   0  0  0  0  0  0  0  0  0  0  0  0
    3.2075   -0.3412    0.0000 H   0  0  0  0  0  0  0  0  0  0  0  0
    2.8004   -1.0279    0.0000 H   0  0  0  0  0  0  0  0  0  0  0  0
    3.3085   -3.1140    0.0000 H   0  0  0  0  0  0  0  0  0  0  0  0
    3.5387   -3.9600    0.0000 H   0  0  0  0  0  0  0  0  0  0  0  0
    4.3848   -3.7298    0.0000 H   0  0  0  0  0  0  0  0  0  0  0  0
    4.3109   -3.7301    0.0000 H   0  0  0  0  0  0  0  0  0  0  0  0
    5.1587   -3.9538    0.0000 H   0  0  0  0  0  0  0  0  0  0  0  0
    5.3824   -3.1060    0.0000 H   0  0  0  0  0  0  0  0  0  0  0  0
   10.2576    1.9410    0.0000 H   0  0  0  0  0  0  0  0  0  0  0  0
   10.5053    2.6986    0.0000 H   0  0  0  0  0  0  0  0  0  0  0  0
    6.5259    2.3542    0.0000 H   0  0  0  0  0  0  0  0  0  0  0  0
    6.7228   -3.8330    0.0000 H   0  0  0  0  0  0  0  0  0  0  0  0
    9.3921    0.6411    0.0000 H   0  0  0  0  0  0  0  0  0  0  0  0
   10.2676    0.5937    0.0000 H   0  0  0  0  0  0  0  0  0  0  0  0
   10.3150    1.4692    0.0000 H   0  0  0  0  0  0  0  0  0  0  0  0
   10.3434    3.4664    0.0000 H   0  0  0  0  0  0  0  0  0  0  0  0
    9.8111    4.0597    0.0000 H   0  0  0  0  0  0  0  0  0  0  0  0
    2.0000   -2.1960    0.0000 H   0  0  0  0  0  0  0  0  0  0  0  0
    9.0653    4.3034    0.0000 H   0  0  0  0  0  0  0  0  0  0  0  0
    8.2854    4.1390    0.0000 H   0  0  0  0  0  0  0  0  0  0  0  0
    7.8226    4.2470    0.0000 H   0  0  0  0  0  0  0  0  0  0  0  0
    6.9471    4.2944    0.0000 H   0  0  0  0  0  0  0  0  0  0  0  0
    6.8996    3.4189    0.0000 H   0  0  0  0  0  0  0  0  0  0  0  0
    6.9226    3.4891    0.0000 H   0  0  0  0  0  0  0  0  0  0  0  0
    6.4438    2.7546    0.0000 H   0  0  0  0  0  0  0  0  0  0  0  0
    7.1783    2.2758    0.0000 H   0  0  0  0  0  0  0  0  0  0  0  0
 15  1  1  1  0  0  0
  1 71  1  0  0  0  0
 16  2  1  1  0  0  0
  2 72  1  0  0  0  0
  3 22  1  0  0  0  0
  3 31  1  0  0  0  0
 24  4  1  1  0  0  0
  4 78  1  0  0  0  0
  5  6  1  0  0  0  0
  5  7  1  0  0  0  0
  5 12  1  0  0  0  0
  5 20  1  1  0  0  0
  6  9  1  0  0  0  0
  6 14  1  0  0  0  0
  6 21  1  6  0  0  0
  7  8  1  0  0  0  0
  7 13  1  0  0  0  0
  7 35  1  6  0  0  0
  8 10  1  0  0  0  0
  8 19  1  0  0  0  0
  8 23  1  1  0  0  0
  9 11  1  0  0  0  0
  9 15  1  0  0  0  0
  9 36  1  1  0  0  0
 10 16  1  0  0  0  0
 10 18  1  0  0  0  0
 10 37  1  6  0  0  0
 11 17  1  0  0  0  0
 11 22  1  0  0  0  0
 11 38  1  6  0  0  0
 12 16  1  0  0  0  0
 12 39  1  0  0  0  0
 12 40  1  0  0  0  0
 13 15  1  0  0  0  0
 13 41  1  0  0  0  0
 13 42  1  0  0  0  0
 14 17  1  0  0  0  0
 14 43  1  0  0  0  0
 14 44  1  0  0  0  0
 15 45  1  0  0  0  0
 16 46  1  0  0  0  0
 17 47  1  0  0  0  0
 17 48  1  0  0  0  0
 18 24  1  0  0  0  0
 18 26  1  0  0  0  0
 18 27  1  0  0  0  0
 19 25  1  0  0  0  0
 19 49  1  0  0  0  0
 19 50  1  0  0  0  0
 20 51  1  0  0  0  0
 20 52  1  0  0  0  0
 20 53  1  0  0  0  0
 21 54  1  0  0  0  0
 21 55  1  0  0  0  0
 21 56  1  0  0  0  0
 22 28  1  0  0  0  0
 22 29  1  1  0  0  0
 23 57  1  0  0  0  0
 23 58  1  0  0  0  0
 23 59  1  0  0  0  0
 24 25  1  0  0  0  0
 24 60  1  0  0  0  0
 25 61  1  0  0  0  0
 25 62  1  0  0  0  0
 26 63  1  0  0  0  0
 26 64  1  0  0  0  0
 26 65  1  0  0  0  0
 27 66  1  0  0  0  0
 27 67  1  0  0  0  0
 27 68  1  0  0  0  0
 28 30  1  0  0  0  0
 28 69  1  0  0  0  0
 28 70  1  0  0  0  0
 29 73  1  0  0  0  0
 29 74  1  0  0  0  0
 29 75  1  0  0  0  0
 30 32  1  0  0  0  0
 30 76  1  0  0  0  0
 30 77  1  0  0  0  0
 31 32  1  0  0  0  0
 31 33  1  0  0  0  0
 31 34  1  0  0  0  0
 32 79  1  0  0  0  0
 32 80  1  0  0  0  0
 33 81  1  0  0  0  0
 33 82  1  0  0  0  0
 33 83  1  0  0  0  0
 34 84  1  0  0  0  0
 34 85  1  0  0  0  0
 34 86  1  0  0  0  0
M  END
> <PUBCHEM_COMPOUND_CID>
73599

> <PUBCHEM_COMPOUND_CANONICALIZED>
1

> <PUBCHEM_CACTVS_COMPLEXITY>
823

> <PUBCHEM_CACTVS_HBOND_ACCEPTOR>
4

> <PUBCHEM_CACTVS_HBOND_DONOR>
3

> <PUBCHEM_CACTVS_ROTATABLE_BOND>
1

> <PUBCHEM_CACTVS_SUBSKEYS>
AAADcfB4OAAAAAAAAAAAAAAAAAAAAYAAAAA0YMEAAAAAAGDAAAAAGgAACAAAD1SggAICAAAABgAAAAAAAAAAAAAAAAAAAAAAAAAAEAIAAAACQAAEAAAAAAHAwPAPgAAAAAAAAADAAAYAADAAAQAACAAAAA==

> <PUBCHEM_IUPAC_OPENEYE_NAME>
(3S,5R,6R,8R,9R,10R,12R,13R,14R,17S)-4,4,8,10,14-pentamethyl-17-[(2R)-2,6,6-trimethyltetrahydropyran-2-yl]-2,3,5,6,7,9,11,12,13,15,16,17-dodecahydro-1H-cyclopenta[a]phenanthrene-3,6,12-triol

> <PUBCHEM_IUPAC_CAS_NAME>
(3S,5R,6R,8R,9R,10R,12R,13R,14R,17S)-4,4,8,10,14-pentamethyl-17-[(2R)-2,6,6-trimethyl-2-oxanyl]-2,3,5,6,7,9,11,12,13,15,16,17-dodecahydro-1H-cyclopenta[a]phenanthrene-3,6,12-triol

> <PUBCHEM_IUPAC_NAME>
(3S,5R,6R,8R,9R,10R,12R,13R,14R,17S)-4,4,8,10,14-pentamethyl-17-[(2R)-2,6,6-trimethyloxan-2-yl]-2,3,5,6,7,9,11,12,13,15,16,17-dodecahydro-1H-cyclopenta[a]phenanthrene-3,6,12-triol

> <PUBCHEM_IUPAC_SYSTEMATIC_NAME>
(3S,5R,6R,8R,9R,10R,12R,13R,14R,17S)-4,4,8,10,14-pentamethyl-17-[(2R)-2,6,6-trimethyloxan-2-yl]-2,3,5,6,7,9,11,12,13,15,16,17-dodecahydro-1H-cyclopenta[a]phenanthrene-3,6,12-triol

> <PUBCHEM_IUPAC_TRADITIONAL_NAME>
(3S,5R,6R,8R,9R,10R,12R,13R,14R,17S)-4,4,8,10,14-pentamethyl-17-[(2R)-2,6,6-trimethyltetrahydropyran-2-yl]-2,3,5,6,7,9,11,12,13,15,16,17-dodecahydro-1H-cyclopenta[a]phenanthrene-3,6,12-triol

> <PUBCHEM_IUPAC_INCHI>
InChI=1S/C30H52O4/c1-25(2)12-9-13-30(8,34-25)18-10-15-28(6)23(18)19(31)16-21-27(5)14-11-22(33)26(3,4)24(27)20(32)17-29(21,28)7/h18-24,31-33H,9-17H2,1-8H3/t18-,19+,20+,21+,22-,23-,24-,27+,28+,29+,30+/m0/s1

> <PUBCHEM_IUPAC_INCHIKEY>
QFJUYMMIBFBOJY-UXZRXANASA-N

> <PUBCHEM_XLOGP3_AA>
5.5

> <PUBCHEM_EXACT_MASS>
476.387

> <PUBCHEM_MOLECULAR_FORMULA>
C30H52O4

> <PUBCHEM_MOLECULAR_WEIGHT>
476.742

> <PUBCHEM_OPENEYE_CAN_SMILES>
CC1(CCCC(O1)(C)C2CCC3(C2C(CC4C3(CC(C5C4(CCC(C5(C)C)O)C)O)C)O)C)C

> <PUBCHEM_OPENEYE_ISO_SMILES>
C[C@@]1(CCCC(O1)(C)C)[C@H]2CC[C@@]3([C@@H]2[C@@H](C[C@H]4[C@]3(C[C@H]([C@@H]5[C@@]4(CC[C@@H](C5(C)C)O)C)O)C)O)C

> <PUBCHEM_CACTVS_TPSA>
69.9

> <PUBCHEM_MONOISOTOPIC_WEIGHT>
476.387

> <PUBCHEM_TOTAL_CHARGE>
0

> <PUBCHEM_HEAVY_ATOM_COUNT>
34

> <PUBCHEM_ATOM_DEF_STEREO_COUNT>
11

> <PUBCHEM_ATOM_UDEF_STEREO_COUNT>
0

> <PUBCHEM_BOND_DEF_STEREO_COUNT>
0

> <PUBCHEM_BOND_UDEF_STEREO_COUNT>
0

> <PUBCHEM_ISOTOPIC_ATOM_COUNT>
0

> <PUBCHEM_COMPONENT_COUNT>
1

> <PUBCHEM_CACTVS_TAUTO_COUNT>
1

> <PUBCHEM_COORDINATE_TYPE>
1
5
255

> <PUBCHEM_BONDANNOTATIONS>
15  1  5
10  37  6
11  38  6
16  2  5
22  29  5
24  4  5
5  20  5
6  21  6
7  35  6
8  23  5
9  36  5

$$$$
