69425
  -OEChem-11191801352D

 52 51  0     0  0  0  0  0  0999 V2000
    8.9282    0.1550    0.0000 C   0  0  0  0  0  0  0  0  0  0  0  0
    8.0622    0.6550    0.0000 C   0  0  0  0  0  0  0  0  0  0  0  0
    9.7942    0.6550    0.0000 C   0  0  0  0  0  0  0  0  0  0  0  0
    7.1962    0.1550    0.0000 C   0  0  0  0  0  0  0  0  0  0  0  0
   10.6603    0.1550    0.0000 C   0  0  0  0  0  0  0  0  0  0  0  0
    6.3301    0.6550    0.0000 C   0  0  0  0  0  0  0  0  0  0  0  0
   11.5263    0.6550    0.0000 C   0  0  0  0  0  0  0  0  0  0  0  0
    5.4641    0.1550    0.0000 C   0  0  0  0  0  0  0  0  0  0  0  0
   12.3923    0.1550    0.0000 C   0  0  0  0  0  0  0  0  0  0  0  0
    4.5981    0.6550    0.0000 C   0  0  0  0  0  0  0  0  0  0  0  0
   13.2583    0.6550    0.0000 C   0  0  0  0  0  0  0  0  0  0  0  0
    3.7320    0.1550    0.0000 C   0  0  0  0  0  0  0  0  0  0  0  0
   14.1244    0.1550    0.0000 C   0  0  0  0  0  0  0  0  0  0  0  0
    2.8660    0.6550    0.0000 C   0  0  0  0  0  0  0  0  0  0  0  0
   14.9904    0.6550    0.0000 C   0  0  0  0  0  0  0  0  0  0  0  0
    2.0000    0.1550    0.0000 C   0  0  0  0  0  0  0  0  0  0  0  0
   15.8564    0.1550    0.0000 C   0  0  0  0  0  0  0  0  0  0  0  0
   16.7224   -0.3450    0.0000 C   0  0  0  0  0  0  0  0  0  0  0  0
    8.5297   -0.3199    0.0000 H   0  0  0  0  0  0  0  0  0  0  0  0
    9.3267   -0.3199    0.0000 H   0  0  0  0  0  0  0  0  0  0  0  0
    8.4607    1.1300    0.0000 H   0  0  0  0  0  0  0  0  0  0  0  0
    7.6636    1.1300    0.0000 H   0  0  0  0  0  0  0  0  0  0  0  0
   10.1928    1.1300    0.0000 H   0  0  0  0  0  0  0  0  0  0  0  0
    9.3957    1.1300    0.0000 H   0  0  0  0  0  0  0  0  0  0  0  0
    6.7976   -0.3199    0.0000 H   0  0  0  0  0  0  0  0  0  0  0  0
    7.5947   -0.3199    0.0000 H   0  0  0  0  0  0  0  0  0  0  0  0
   10.2617   -0.3199    0.0000 H   0  0  0  0  0  0  0  0  0  0  0  0
   11.0588   -0.3199    0.0000 H   0  0  0  0  0  0  0  0  0  0  0  0
    6.7287    1.1300    0.0000 H   0  0  0  0  0  0  0  0  0  0  0  0
    5.9316    1.1300    0.0000 H   0  0  0  0  0  0  0  0  0  0  0  0
   11.9248    1.1300    0.0000 H   0  0  0  0  0  0  0  0  0  0  0  0
   11.1278    1.1300    0.0000 H   0  0  0  0  0  0  0  0  0  0  0  0
    5.0656   -0.3199    0.0000 H   0  0  0  0  0  0  0  0  0  0  0  0
    5.8626   -0.3199    0.0000 H   0  0  0  0  0  0  0  0  0  0  0  0
   11.9938   -0.3199    0.0000 H   0  0  0  0  0  0  0  0  0  0  0  0
   12.7908   -0.3199    0.0000 H   0  0  0  0  0  0  0  0  0  0  0  0
    4.9966    1.1300    0.0000 H   0  0  0  0  0  0  0  0  0  0  0  0
    4.1996    1.1300    0.0000 H   0  0  0  0  0  0  0  0  0  0  0  0
   13.6569    1.1300    0.0000 H   0  0  0  0  0  0  0  0  0  0  0  0
   12.8598    1.1300    0.0000 H   0  0  0  0  0  0  0  0  0  0  0  0
    3.3335   -0.3199    0.0000 H   0  0  0  0  0  0  0  0  0  0  0  0
    4.1306   -0.3199    0.0000 H   0  0  0  0  0  0  0  0  0  0  0  0
   13.7258   -0.3199    0.0000 H   0  0  0  0  0  0  0  0  0  0  0  0
   14.5229   -0.3199    0.0000 H   0  0  0  0  0  0  0  0  0  0  0  0
    3.2646    1.1300    0.0000 H   0  0  0  0  0  0  0  0  0  0  0  0
    2.4675    1.1300    0.0000 H   0  0  0  0  0  0  0  0  0  0  0  0
   15.3889    1.1300    0.0000 H   0  0  0  0  0  0  0  0  0  0  0  0
   14.5919    1.1300    0.0000 H   0  0  0  0  0  0  0  0  0  0  0  0
    1.6900    0.6919    0.0000 H   0  0  0  0  0  0  0  0  0  0  0  0
    1.4631   -0.1550    0.0000 H   0  0  0  0  0  0  0  0  0  0  0  0
    2.3100   -0.3819    0.0000 H   0  0  0  0  0  0  0  0  0  0  0  0
   17.2594   -0.6550    0.0000 H   0  0  0  0  0  0  0  0  0  0  0  0
  1  2  1  0  0  0  0
  1  3  1  0  0  0  0
  1 19  1  0  0  0  0
  1 20  1  0  0  0  0
  2  4  1  0  0  0  0
  2 21  1  0  0  0  0
  2 22  1  0  0  0  0
  3  5  1  0  0  0  0
  3 23  1  0  0  0  0
  3 24  1  0  0  0  0
  4  6  1  0  0  0  0
  4 25  1  0  0  0  0
  4 26  1  0  0  0  0
  5  7  1  0  0  0  0
  5 27  1  0  0  0  0
  5 28  1  0  0  0  0
  6  8  1  0  0  0  0
  6 29  1  0  0  0  0
  6 30  1  0  0  0  0
  7  9  1  0  0  0  0
  7 31  1  0  0  0  0
  7 32  1  0  0  0  0
  8 10  1  0  0  0  0
  8 33  1  0  0  0  0
  8 34  1  0  0  0  0
  9 11  1  0  0  0  0
  9 35  1  0  0  0  0
  9 36  1  0  0  0  0
 10 12  1  0  0  0  0
 10 37  1  0  0  0  0
 10 38  1  0  0  0  0
 11 13  1  0  0  0  0
 11 39  1  0  0  0  0
 11 40  1  0  0  0  0
 12 14  1  0  0  0  0
 12 41  1  0  0  0  0
 12 42  1  0  0  0  0
 13 15  1  0  0  0  0
 13 43  1  0  0  0  0
 13 44  1  0  0  0  0
 14 16  1  0  0  0  0
 14 45  1  0  0  0  0
 14 46  1  0  0  0  0
 15 17  1  0  0  0  0
 15 47  1  0  0  0  0
 15 48  1  0  0  0  0
 16 49  1  0  0  0  0
 16 50  1  0  0  0  0
 16 51  1  0  0  0  0
 17 18  3  0  0  0  0
 18 52  1  0  0  0  0
M  END
> <PUBCHEM_COMPOUND_CID>
69425

> <PUBCHEM_COMPOUND_CANONICALIZED>
1

> <PUBCHEM_CACTVS_COMPLEXITY>
184

> <PUBCHEM_CACTVS_HBOND_ACCEPTOR>
0

> <PUBCHEM_CACTVS_HBOND_DONOR>
0

> <PUBCHEM_CACTVS_ROTATABLE_BOND>
14

> <PUBCHEM_CACTVS_SUBSKEYS>
AAADcfB4AAAAAAAAAAAAAAAAAAAAAAAAAAAAAAAAAAAAAAAAAAAAGAAAAAAACACAAAACAAAAAABAGAAAAAgAAAAAAAAAAAAAAAAAAAIAAAAAAAAAAAAAAAEAgIAAAAAAAAAAAAAAAAAAAAAAAAAAAAAAAA==

> <PUBCHEM_IUPAC_OPENEYE_NAME>
octadec-1-yne

> <PUBCHEM_IUPAC_CAS_NAME>
1-octadecyne

> <PUBCHEM_IUPAC_NAME>
octadec-1-yne

> <PUBCHEM_IUPAC_SYSTEMATIC_NAME>
octadec-1-yne

> <PUBCHEM_IUPAC_TRADITIONAL_NAME>
octadec-1-yne

> <PUBCHEM_IUPAC_INCHI>
InChI=1S/C18H34/c1-3-5-7-9-11-13-15-17-18-16-14-12-10-8-6-4-2/h1H,4-18H2,2H3

> <PUBCHEM_IUPAC_INCHIKEY>
IYDNQWWOZQLMRH-UHFFFAOYSA-N

> <PUBCHEM_XLOGP3_AA>
8.9

> <PUBCHEM_EXACT_MASS>
250.266

> <PUBCHEM_MOLECULAR_FORMULA>
C18H34

> <PUBCHEM_MOLECULAR_WEIGHT>
250.47

> <PUBCHEM_OPENEYE_CAN_SMILES>
CCCCCCCCCCCCCCCCC#C

> <PUBCHEM_OPENEYE_ISO_SMILES>
CCCCCCCCCCCCCCCCC#C

> <PUBCHEM_CACTVS_TPSA>
0

> <PUBCHEM_MONOISOTOPIC_WEIGHT>
250.266

> <PUBCHEM_TOTAL_CHARGE>
0

> <PUBCHEM_HEAVY_ATOM_COUNT>
18

> <PUBCHEM_ATOM_DEF_STEREO_COUNT>
0

> <PUBCHEM_ATOM_UDEF_STEREO_COUNT>
0

> <PUBCHEM_BOND_DEF_STEREO_COUNT>
0

> <PUBCHEM_BOND_UDEF_STEREO_COUNT>
0

> <PUBCHEM_ISOTOPIC_ATOM_COUNT>
0

> <PUBCHEM_COMPONENT_COUNT>
1

> <PUBCHEM_CACTVS_TAUTO_COUNT>
1

> <PUBCHEM_COORDINATE_TYPE>
1
5
255

$$$$
