441923
  -OEChem-11191801342D

128133  0     1  0  0  0  0  0999 V2000
   10.0160   -2.7197    0.0000 O   0  0  0  0  0  0  0  0  0  0  0  0
    9.1164    2.8461    0.0000 O   0  0  0  0  0  0  0  0  0  0  0  0
    6.6801    3.5425    0.0000 O   0  0  0  0  0  0  0  0  0  0  0  0
   13.6609   -1.6887    0.0000 O   0  0  0  0  0  0  0  0  0  0  0  0
    8.2839   -2.7197    0.0000 O   0  0  0  0  0  0  0  0  0  0  0  0
    5.0358    2.9981    0.0000 O   0  0  0  0  0  0  0  0  0  0  0  0
   10.0160   -4.7197    0.0000 O   0  0  0  0  0  0  0  0  0  0  0  0
    8.2839   -5.7197    0.0000 O   0  0  0  0  0  0  0  0  0  0  0  0
    6.0514    5.4411    0.0000 O   0  0  0  0  0  0  0  0  0  0  0  0
    6.5519   -4.7197    0.0000 O   0  0  0  0  0  0  0  0  0  0  0  0
    4.0929    5.8460    0.0000 O   0  0  0  0  0  0  0  0  0  0  0  0
    2.7629    4.3523    0.0000 O   0  0  0  0  0  0  0  0  0  0  0  0
    5.6858   -3.2197    0.0000 O   0  0  0  0  0  0  0  0  0  0  0  0
    2.4123    2.6561    0.0000 O   0  0  0  0  0  0  0  0  0  0  0  0
    9.1279   -0.1539    0.0000 C   0  0  1  0  0  0  0  0  0  0  0  0
    8.2600    0.3428    0.0000 C   0  0  1  0  0  0  0  0  0  0  0  0
    9.9920    0.3495    0.0000 C   0  0  1  0  0  0  0  0  0  0  0  0
   10.9040   -0.1539    0.0000 C   0  0  2  0  0  0  0  0  0  0  0  0
    8.2561    1.3428    0.0000 C   0  0  1  0  0  0  0  0  0  0  0  0
   10.9160   -1.1954    0.0000 C   0  0  1  0  0  0  0  0  0  0  0  0
    9.1159   -1.1954    0.0000 C   0  0  0  0  0  0  0  0  0  0  0  0
    9.9882    1.3495    0.0000 C   0  0  0  0  0  0  0  0  0  0  0  0
    7.3088    1.6439    0.0000 C   0  0  2  0  0  0  0  0  0  0  0  0
    9.1202    1.8461    0.0000 C   0  0  1  0  0  0  0  0  0  0  0  0
    7.3150    0.0344    0.0000 C   0  0  0  0  0  0  0  0  0  0  0  0
   10.0160   -1.7197    0.0000 C   0  0  2  0  0  0  0  0  0  0  0  0
   11.8536   -1.7415    0.0000 C   0  0  0  0  0  0  0  0  0  0  0  0
    6.7282    0.8369    0.0000 C   0  0  0  0  0  0  0  0  0  0  0  0
   11.8286    0.4138    0.0000 C   0  0  0  0  0  0  0  0  0  0  0  0
    8.4881   -0.9224    0.0000 C   0  0  0  0  0  0  0  0  0  0  0  0
    7.9216   -0.5982    0.0000 C   0  0  0  0  0  0  0  0  0  0  0  0
   10.8924    0.8461    0.0000 C   0  0  0  0  0  0  0  0  0  0  0  0
   12.7911   -1.1954    0.0000 C   0  0  2  0  0  0  0  0  0  0  0  0
    6.9944    2.5932    0.0000 C   0  0  2  0  0  0  0  0  0  0  0  0
   12.7785   -0.1105    0.0000 C   0  0  0  0  0  0  0  0  0  0  0  0
   12.3536   -2.6076    0.0000 C   0  0  0  0  0  0  0  0  0  0  0  0
   11.3536   -2.6076    0.0000 C   0  0  0  0  0  0  0  0  0  0  0  0
    6.0451    2.2789    0.0000 C   0  0  0  0  0  0  0  0  0  0  0  0
    7.9437    2.9075    0.0000 C   0  0  0  0  0  0  0  0  0  0  0  0
    9.1499   -3.2197    0.0000 C   0  0  2  0  0  0  0  0  0  0  0  0
    5.8427    1.2996    0.0000 C   0  0  0  0  0  0  0  0  0  0  0  0
    5.7008    3.7450    0.0000 C   0  0  2  0  0  0  0  0  0  0  0  0
    9.1499   -4.2197    0.0000 C   0  0  1  0  0  0  0  0  0  0  0  0
    8.2839   -4.7197    0.0000 C   0  0  2  0  0  0  0  0  0  0  0  0
    5.3865    4.6943    0.0000 C   0  0  1  0  0  0  0  0  0  0  0  0
    7.4179   -3.2197    0.0000 C   0  0  1  0  0  0  0  0  0  0  0  0
    4.8934    0.9852    0.0000 C   0  0  0  0  0  0  0  0  0  0  0  0
    7.4179   -4.2197    0.0000 C   0  0  1  0  0  0  0  0  0  0  0  0
    4.4072    4.8967    0.0000 C   0  0  2  0  0  0  0  0  0  0  0  0
    4.0565    3.2005    0.0000 C   0  0  1  0  0  0  0  0  0  0  0  0
    3.7422    4.1498    0.0000 C   0  0  1  0  0  0  0  0  0  0  0  0
    6.5519   -2.7197    0.0000 C   0  0  0  0  0  0  0  0  0  0  0  0
    4.6909    0.0060    0.0000 C   0  0  0  0  0  0  0  0  0  0  0  0
    3.3916    2.4536    0.0000 C   0  0  0  0  0  0  0  0  0  0  0  0
    3.7416   -0.3084    0.0000 C   0  0  0  0  0  0  0  0  0  0  0  0
    5.4378   -0.6590    0.0000 C   0  0  0  0  0  0  0  0  0  0  0  0
   10.7232    0.7830    0.0000 H   0  0  0  0  0  0  0  0  0  0  0  0
    8.1629    2.1877    0.0000 H   0  0  0  0  0  0  0  0  0  0  0  0
   10.9160   -2.0454    0.0000 H   0  0  0  0  0  0  0  0  0  0  0  0
    8.5063   -1.0823    0.0000 H   0  0  0  0  0  0  0  0  0  0  0  0
    8.9001   -1.7767    0.0000 H   0  0  0  0  0  0  0  0  0  0  0  0
   10.5992    1.2442    0.0000 H   0  0  0  0  0  0  0  0  0  0  0  0
   10.1980    1.9329    0.0000 H   0  0  0  0  0  0  0  0  0  0  0  0
    6.4685    1.7725    0.0000 H   0  0  0  0  0  0  0  0  0  0  0  0
    9.6560    2.1582    0.0000 H   0  0  0  0  0  0  0  0  0  0  0  0
    6.7788   -0.2769    0.0000 H   0  0  0  0  0  0  0  0  0  0  0  0
    7.5682   -0.5315    0.0000 H   0  0  0  0  0  0  0  0  0  0  0  0
   10.5535   -2.0287    0.0000 H   0  0  0  0  0  0  0  0  0  0  0  0
    6.2658    1.2498    0.0000 H   0  0  0  0  0  0  0  0  0  0  0  0
    6.2690    0.4204    0.0000 H   0  0  0  0  0  0  0  0  0  0  0  0
   12.2167    0.8973    0.0000 H   0  0  0  0  0  0  0  0  0  0  0  0
   11.4186    0.8789    0.0000 H   0  0  0  0  0  0  0  0  0  0  0  0
    8.0116   -0.5256    0.0000 H   0  0  0  0  0  0  0  0  0  0  0  0
    8.0914   -1.3988    0.0000 H   0  0  0  0  0  0  0  0  0  0  0  0
    8.9645   -1.3191    0.0000 H   0  0  0  0  0  0  0  0  0  0  0  0
    7.3382   -0.3884    0.0000 H   0  0  0  0  0  0  0  0  0  0  0  0
    7.7118   -1.1816    0.0000 H   0  0  0  0  0  0  0  0  0  0  0  0
    8.5050   -0.8080    0.0000 H   0  0  0  0  0  0  0  0  0  0  0  0
   11.5124    0.8532    0.0000 H   0  0  0  0  0  0  0  0  0  0  0  0
   10.8852    1.4660    0.0000 H   0  0  0  0  0  0  0  0  0  0  0  0
   10.2725    0.8389    0.0000 H   0  0  0  0  0  0  0  0  0  0  0  0
   13.3250   -0.8803    0.0000 H   0  0  0  0  0  0  0  0  0  0  0  0
   13.3906   -0.2095    0.0000 H   0  0  0  0  0  0  0  0  0  0  0  0
   12.9808    0.4756    0.0000 H   0  0  0  0  0  0  0  0  0  0  0  0
   11.8166   -2.9176    0.0000 H   0  0  0  0  0  0  0  0  0  0  0  0
   12.6636   -3.1445    0.0000 H   0  0  0  0  0  0  0  0  0  0  0  0
   12.8905   -2.2976    0.0000 H   0  0  0  0  0  0  0  0  0  0  0  0
   10.8166   -2.2976    0.0000 H   0  0  0  0  0  0  0  0  0  0  0  0
   11.0436   -3.1445    0.0000 H   0  0  0  0  0  0  0  0  0  0  0  0
   11.8905   -2.9176    0.0000 H   0  0  0  0  0  0  0  0  0  0  0  0
    9.6521    3.1582    0.0000 H   0  0  0  0  0  0  0  0  0  0  0  0
    5.9554    2.8923    0.0000 H   0  0  0  0  0  0  0  0  0  0  0  0
    5.4254    2.2970    0.0000 H   0  0  0  0  0  0  0  0  0  0  0  0
    8.1386    2.3189    0.0000 H   0  0  0  0  0  0  0  0  0  0  0  0
    8.5323    3.1024    0.0000 H   0  0  0  0  0  0  0  0  0  0  0  0
    7.7489    3.4961    0.0000 H   0  0  0  0  0  0  0  0  0  0  0  0
    9.6869   -3.5297    0.0000 H   0  0  0  0  0  0  0  0  0  0  0  0
   14.1955   -1.3746    0.0000 H   0  0  0  0  0  0  0  0  0  0  0  0
    5.9324    0.6861    0.0000 H   0  0  0  0  0  0  0  0  0  0  0  0
    6.4624    1.2814    0.0000 H   0  0  0  0  0  0  0  0  0  0  0  0
    5.8957    3.1564    0.0000 H   0  0  0  0  0  0  0  0  0  0  0  0
    9.1499   -4.8397    0.0000 H   0  0  0  0  0  0  0  0  0  0  0  0
    7.7470   -5.0297    0.0000 H   0  0  0  0  0  0  0  0  0  0  0  0
    5.9936    4.5688    0.0000 H   0  0  0  0  0  0  0  0  0  0  0  0
    7.4179   -2.5997    0.0000 H   0  0  0  0  0  0  0  0  0  0  0  0
    4.4303    1.3975    0.0000 H   0  0  0  0  0  0  0  0  0  0  0  0
    6.8809   -3.9097    0.0000 H   0  0  0  0  0  0  0  0  0  0  0  0
    4.8195    5.3598    0.0000 H   0  0  0  0  0  0  0  0  0  0  0  0
    4.2514    2.6120    0.0000 H   0  0  0  0  0  0  0  0  0  0  0  0
   10.0160   -5.3397    0.0000 H   0  0  0  0  0  0  0  0  0  0  0  0
    3.3299    3.6868    0.0000 H   0  0  0  0  0  0  0  0  0  0  0  0
    6.9504   -2.2448    0.0000 H   0  0  0  0  0  0  0  0  0  0  0  0
    6.1533   -2.2448    0.0000 H   0  0  0  0  0  0  0  0  0  0  0  0
    7.7470   -6.0297    0.0000 H   0  0  0  0  0  0  0  0  0  0  0  0
    5.8566    6.0297    0.0000 H   0  0  0  0  0  0  0  0  0  0  0  0
    6.5519   -5.3397    0.0000 H   0  0  0  0  0  0  0  0  0  0  0  0
    3.1625    1.8775    0.0000 H   0  0  0  0  0  0  0  0  0  0  0  0
    3.9192    2.1280    0.0000 H   0  0  0  0  0  0  0  0  0  0  0  0
    3.4857    5.9715    0.0000 H   0  0  0  0  0  0  0  0  0  0  0  0
    3.5467    0.2802    0.0000 H   0  0  0  0  0  0  0  0  0  0  0  0
    3.1530   -0.5033    0.0000 H   0  0  0  0  0  0  0  0  0  0  0  0
    3.9365   -0.8969    0.0000 H   0  0  0  0  0  0  0  0  0  0  0  0
    5.0255   -1.1221    0.0000 H   0  0  0  0  0  0  0  0  0  0  0  0
    5.9008   -1.0713    0.0000 H   0  0  0  0  0  0  0  0  0  0  0  0
    5.8501   -0.1960    0.0000 H   0  0  0  0  0  0  0  0  0  0  0  0
    2.5680    4.9409    0.0000 H   0  0  0  0  0  0  0  0  0  0  0  0
    5.1489   -2.9097    0.0000 H   0  0  0  0  0  0  0  0  0  0  0  0
    2.0000    2.1930    0.0000 H   0  0  0  0  0  0  0  0  0  0  0  0
 26  1  1  1  0  0  0
 40  1  1  1  0  0  0
 24  2  1  6  0  0  0
  2 91  1  0  0  0  0
 34  3  1  6  0  0  0
 42  3  1  6  0  0  0
 33  4  1  6  0  0  0
  4 98  1  0  0  0  0
  5 40  1  0  0  0  0
  5 46  1  0  0  0  0
  6 42  1  0  0  0  0
  6 50  1  0  0  0  0
 43  7  1  6  0  0  0
  7110  1  0  0  0  0
 44  8  1  1  0  0  0
  8114  1  0  0  0  0
 45  9  1  1  0  0  0
  9115  1  0  0  0  0
 48 10  1  6  0  0  0
 10116  1  0  0  0  0
 49 11  1  6  0  0  0
 11119  1  0  0  0  0
 51 12  1  1  0  0  0
 12126  1  0  0  0  0
 13 52  1  0  0  0  0
 13127  1  0  0  0  0
 14 54  1  0  0  0  0
 14128  1  0  0  0  0
 15 16  1  0  0  0  0
 15 17  1  0  0  0  0
 15 21  1  0  0  0  0
 15 30  1  6  0  0  0
 16 19  1  0  0  0  0
 16 25  1  0  0  0  0
 16 31  1  1  0  0  0
 17 18  1  0  0  0  0
 17 22  1  0  0  0  0
 17 57  1  1  0  0  0
 18 20  1  0  0  0  0
 18 29  1  0  0  0  0
 18 32  1  6  0  0  0
 19 23  1  0  0  0  0
 19 24  1  0  0  0  0
 19 58  1  6  0  0  0
 20 26  1  0  0  0  0
 20 27  1  0  0  0  0
 20 59  1  1  0  0  0
 21 26  1  0  0  0  0
 21 60  1  0  0  0  0
 21 61  1  0  0  0  0
 22 24  1  0  0  0  0
 22 62  1  0  0  0  0
 22 63  1  0  0  0  0
 23 28  1  0  0  0  0
 23 34  1  0  0  0  0
 23 64  1  1  0  0  0
 24 65  1  0  0  0  0
 25 28  1  0  0  0  0
 25 66  1  0  0  0  0
 25 67  1  0  0  0  0
 26 68  1  0  0  0  0
 27 33  1  0  0  0  0
 27 36  1  0  0  0  0
 27 37  1  0  0  0  0
 28 69  1  0  0  0  0
 28 70  1  0  0  0  0
 29 35  1  0  0  0  0
 29 71  1  0  0  0  0
 29 72  1  0  0  0  0
 30 73  1  0  0  0  0
 30 74  1  0  0  0  0
 30 75  1  0  0  0  0
 31 76  1  0  0  0  0
 31 77  1  0  0  0  0
 31 78  1  0  0  0  0
 32 79  1  0  0  0  0
 32 80  1  0  0  0  0
 32 81  1  0  0  0  0
 33 35  1  0  0  0  0
 33 82  1  0  0  0  0
 34 38  1  0  0  0  0
 34 39  1  0  0  0  0
 35 83  1  0  0  0  0
 35 84  1  0  0  0  0
 36 85  1  0  0  0  0
 36 86  1  0  0  0  0
 36 87  1  0  0  0  0
 37 88  1  0  0  0  0
 37 89  1  0  0  0  0
 37 90  1  0  0  0  0
 38 41  1  0  0  0  0
 38 92  1  0  0  0  0
 38 93  1  0  0  0  0
 39 94  1  0  0  0  0
 39 95  1  0  0  0  0
 39 96  1  0  0  0  0
 40 43  1  0  0  0  0
 40 97  1  0  0  0  0
 41 47  1  0  0  0  0
 41 99  1  0  0  0  0
 41100  1  0  0  0  0
 42 45  1  0  0  0  0
 42101  1  0  0  0  0
 43 44  1  0  0  0  0
 43102  1  0  0  0  0
 44 48  1  0  0  0  0
 44103  1  0  0  0  0
 45 49  1  0  0  0  0
 45104  1  0  0  0  0
 46 48  1  0  0  0  0
 46 52  1  1  0  0  0
 46105  1  0  0  0  0
 47 53  2  0  0  0  0
 47106  1  0  0  0  0
 48107  1  0  0  0  0
 49 51  1  0  0  0  0
 49108  1  0  0  0  0
 50 51  1  0  0  0  0
 50 54  1  6  0  0  0
 50109  1  0  0  0  0
 51111  1  0  0  0  0
 52112  1  0  0  0  0
 52113  1  0  0  0  0
 53 55  1  0  0  0  0
 53 56  1  0  0  0  0
 54117  1  0  0  0  0
 54118  1  0  0  0  0
 55120  1  0  0  0  0
 55121  1  0  0  0  0
 55122  1  0  0  0  0
 56123  1  0  0  0  0
 56124  1  0  0  0  0
 56125  1  0  0  0  0
M  END
> <PUBCHEM_COMPOUND_CID>
441923

> <PUBCHEM_COMPOUND_CANONICALIZED>
1

> <PUBCHEM_CACTVS_COMPLEXITY>
1410

> <PUBCHEM_CACTVS_HBOND_ACCEPTOR>
14

> <PUBCHEM_CACTVS_HBOND_DONOR>
10

> <PUBCHEM_CACTVS_ROTATABLE_BOND>
10

> <PUBCHEM_CACTVS_SUBSKEYS>
AAADcfB8PAAAAAAAAAAAAAAAAAAAAYAAAAA0aMECAAAAAGDAAAAAGgAACAAAD1SwgAMCCAAABgCAAiBCAAAAAAAgAAAACAAAAAgREAIAAQAiQAAFgAAPAAPA4PwPgAAAAAAAAADAAAYAADAAAQAACAAAAA==

> <PUBCHEM_IUPAC_OPENEYE_NAME>
(2R,3R,4S,5S,6R)-2-[[(3S,5R,6S,8R,9R,10R,12R,13R,14R,17S)-17-[(1S)-1,5-dimethyl-1-[(2S,3R,4S,5S,6R)-3,4,5-trihydroxy-6-(hydroxymethyl)tetrahydropyran-2-yl]oxy-hex-4-enyl]-3,12-dihydroxy-4,4,8,10,14-pentamethyl-2,3,5,6,7,9,11,12,13,15,16,17-dodecahydro-1H-cyclopenta[a]phenanthren-6-yl]oxy]-6-(hydroxymethyl)tetrahydropyran-3,4,5-triol

> <PUBCHEM_IUPAC_CAS_NAME>
(2R,3R,4S,5S,6R)-2-[[(3S,5R,6S,8R,9R,10R,12R,13R,14R,17S)-3,12-dihydroxy-4,4,8,10,14-pentamethyl-17-[(2S)-6-methyl-2-[[(2S,3R,4S,5S,6R)-3,4,5-trihydroxy-6-(hydroxymethyl)-2-oxanyl]oxy]hept-5-en-2-yl]-2,3,5,6,7,9,11,12,13,15,16,17-dodecahydro-1H-cyclopenta[a]phenanthren-6-yl]oxy]-6-(hydroxymethyl)oxane-3,4,5-triol

> <PUBCHEM_IUPAC_NAME>
(2R,3R,4S,5S,6R)-2-[[(3S,5R,6S,8R,9R,10R,12R,13R,14R,17S)-3,12-dihydroxy-4,4,8,10,14-pentamethyl-17-[(2S)-6-methyl-2-[(2S,3R,4S,5S,6R)-3,4,5-trihydroxy-6-(hydroxymethyl)oxan-2-yl]oxyhept-5-en-2-yl]-2,3,5,6,7,9,11,12,13,15,16,17-dodecahydro-1H-cyclopenta[a]phenanthren-6-yl]oxy]-6-(hydroxymethyl)oxane-3,4,5-triol

> <PUBCHEM_IUPAC_SYSTEMATIC_NAME>
(2R,3S,4S,5R,6R)-2-(hydroxymethyl)-6-[[(3S,5R,6S,8R,9R,10R,12R,13R,14R,17S)-17-[(2S)-2-[(2S,3R,4S,5S,6R)-6-(hydroxymethyl)-3,4,5-tris(oxidanyl)oxan-2-yl]oxy-6-methyl-hept-5-en-2-yl]-4,4,8,10,14-pentamethyl-3,12-bis(oxidanyl)-2,3,5,6,7,9,11,12,13,15,16,17-dodecahydro-1H-cyclopenta[a]phenanthren-6-yl]oxy]oxane-3,4,5-triol

> <PUBCHEM_IUPAC_TRADITIONAL_NAME>
(2R,3R,4S,5S,6R)-2-[[(3S,5R,6S,8R,9R,10R,12R,13R,14R,17S)-17-[(1S)-1,5-dimethyl-1-[(2S,3R,4S,5S,6R)-3,4,5-trihydroxy-6-methylol-tetrahydropyran-2-yl]oxy-hex-4-enyl]-3,12-dihydroxy-4,4,8,10,14-pentamethyl-2,3,5,6,7,9,11,12,13,15,16,17-dodecahydro-1H-cyclopenta[a]phenanthren-6-yl]oxy]-6-methylol-tetrahydropyran-3,4,5-triol

> <PUBCHEM_IUPAC_INCHI>
InChI=1S/C42H72O14/c1-20(2)10-9-13-42(8,56-37-34(52)32(50)30(48)25(19-44)55-37)21-11-15-40(6)28(21)22(45)16-26-39(5)14-12-27(46)38(3,4)35(39)23(17-41(26,40)7)53-36-33(51)31(49)29(47)24(18-43)54-36/h10,21-37,43-52H,9,11-19H2,1-8H3/t21-,22+,23-,24+,25+,26+,27-,28-,29+,30+,31-,32-,33+,34+,35-,36+,37-,39+,40+,41+,42-/m0/s1

> <PUBCHEM_IUPAC_INCHIKEY>
YURJSTAIMNSZAE-HHNZYBFYSA-N

> <PUBCHEM_XLOGP3_AA>
2.7

> <PUBCHEM_EXACT_MASS>
800.492

> <PUBCHEM_MOLECULAR_FORMULA>
C42H72O14

> <PUBCHEM_MOLECULAR_WEIGHT>
801.024

> <PUBCHEM_OPENEYE_CAN_SMILES>
CC(=CCCC(C)(C1CCC2(C1C(CC3C2(CC(C4C3(CCC(C4(C)C)O)C)OC5C(C(C(C(O5)CO)O)O)O)C)O)C)OC6C(C(C(C(O6)CO)O)O)O)C

> <PUBCHEM_OPENEYE_ISO_SMILES>
CC(=CCC[C@@](C)([C@H]1CC[C@@]2([C@@H]1[C@@H](C[C@H]3[C@]2(C[C@@H]([C@@H]4[C@@]3(CC[C@@H](C4(C)C)O)C)O[C@H]5[C@@H]([C@H]([C@@H]([C@H](O5)CO)O)O)O)C)O)C)O[C@H]6[C@@H]([C@H]([C@@H]([C@H](O6)CO)O)O)O)C

> <PUBCHEM_CACTVS_TPSA>
239

> <PUBCHEM_MONOISOTOPIC_WEIGHT>
800.492

> <PUBCHEM_TOTAL_CHARGE>
0

> <PUBCHEM_HEAVY_ATOM_COUNT>
56

> <PUBCHEM_ATOM_DEF_STEREO_COUNT>
21

> <PUBCHEM_ATOM_UDEF_STEREO_COUNT>
0

> <PUBCHEM_BOND_DEF_STEREO_COUNT>
0

> <PUBCHEM_BOND_UDEF_STEREO_COUNT>
0

> <PUBCHEM_ISOTOPIC_ATOM_COUNT>
0

> <PUBCHEM_COMPONENT_COUNT>
1

> <PUBCHEM_CACTVS_TAUTO_COUNT>
1

> <PUBCHEM_COORDINATE_TYPE>
1
5
255

> <PUBCHEM_BONDANNOTATIONS>
26  1  5
40  1  5
48  10  6
49  11  6
51  12  5
15  30  6
16  31  5
17  57  5
18  32  6
19  58  6
24  2  6
20  59  5
23  64  5
34  3  6
42  3  6
33  4  6
46  52  5
50  54  6
43  7  6
44  8  5
45  9  5

$$$$
