44584555
  -OEChem-11191801352D

148154  0     1  0  0  0  0  0999 V2000
    6.8217   -0.4290    0.0000 O   0  0  0  0  0  0  0  0  0  0  0  0
    8.5245   -6.6192    0.0000 O   0  0  0  0  0  0  0  0  0  0  0  0
    7.4178    2.0337    0.0000 O   0  0  0  0  0  0  0  0  0  0  0  0
    6.7924   -6.6192    0.0000 O   0  0  0  0  0  0  0  0  0  0  0  0
    7.0541    3.7271    0.0000 O   0  0  0  0  0  0  0  0  0  0  0  0
    8.5245   -8.6192    0.0000 O   0  0  0  0  0  0  0  0  0  0  0  0
    9.3732    2.4537    0.0000 O   0  0  0  0  0  0  0  0  0  0  0  0
    6.7924   -9.6192    0.0000 O   0  0  0  0  0  0  0  0  0  0  0  0
    9.9872    4.3571    0.0000 O   0  0  0  0  0  0  0  0  0  0  0  0
    5.0604   -8.6192    0.0000 O   0  0  0  0  0  0  0  0  0  0  0  0
    8.6458    5.8406    0.0000 O   0  0  0  0  0  0  0  0  0  0  0  0
    5.7127    5.2106    0.0000 O   0  0  0  0  0  0  0  0  0  0  0  0
    4.1944   -7.1192    0.0000 O   0  0  0  0  0  0  0  0  0  0  0  0
    5.3490    6.9040    0.0000 O   0  0  0  0  0  0  0  0  0  0  0  0
    3.7572    4.7906    0.0000 O   0  0  0  0  0  0  0  0  0  0  0  0
    2.4158    6.2740    0.0000 O   0  0  0  0  0  0  0  0  0  0  0  0
    3.0298    8.1775    0.0000 O   0  0  0  0  0  0  0  0  0  0  0  0
    4.3145    9.3392    0.0000 O   0  0  0  0  0  0  0  0  0  0  0  0
    9.4256   -1.9190    0.0000 C   0  0  1  0  0  0  0  0  0  0  0  0
    9.4217   -0.9190    0.0000 C   0  0  1  0  0  0  0  0  0  0  0  0
    8.5615   -2.4223    0.0000 C   0  0  1  0  0  0  0  0  0  0  0  0
    8.5494   -3.4639    0.0000 C   0  0  2  0  0  0  0  0  0  0  0  0
    8.5538   -0.4224    0.0000 C   0  0  1  0  0  0  0  0  0  0  0  0
    9.4495   -3.9882    0.0000 C   0  0  1  0  0  0  0  0  0  0  0  0
   10.3375   -2.4223    0.0000 C   0  0  0  0  0  0  0  0  0  0  0  0
    8.7592    0.5503    0.0000 C   0  0  2  0  0  0  0  0  0  0  0  0
    7.6935   -1.9257    0.0000 C   0  0  0  0  0  0  0  0  0  0  0  0
    7.6896   -0.9257    0.0000 C   0  0  1  0  0  0  0  0  0  0  0  0
   10.1561   -0.2491    0.0000 C   0  0  0  0  0  0  0  0  0  0  0  0
   10.3495   -3.4639    0.0000 C   0  0  0  0  0  0  0  0  0  0  0  0
    9.4620   -5.0731    0.0000 C   0  0  0  0  0  0  0  0  0  0  0  0
    9.7475    0.6571    0.0000 C   0  0  0  0  0  0  0  0  0  0  0  0
    7.5995   -3.9882    0.0000 C   0  0  0  0  0  0  0  0  0  0  0  0
   10.4097   -1.7416    0.0000 C   0  0  0  0  0  0  0  0  0  0  0  0
   10.4072   -1.0889    0.0000 C   0  0  0  0  0  0  0  0  0  0  0  0
    7.6853   -2.9606    0.0000 C   0  0  0  0  0  0  0  0  0  0  0  0
    8.5245   -5.6192    0.0000 C   0  0  2  0  0  0  0  0  0  0  0  0
    8.0885    1.2920    0.0000 C   0  0  2  0  0  0  0  0  0  0  0  0
    7.5870   -5.0731    0.0000 C   0  0  0  0  0  0  0  0  0  0  0  0
   10.4620   -5.0654    0.0000 C   0  0  0  0  0  0  0  0  0  0  0  0
    9.9687   -5.9353    0.0000 C   0  0  0  0  0  0  0  0  0  0  0  0
    8.8302    1.9627    0.0000 C   0  0  0  0  0  0  0  0  0  0  0  0
    7.3468    0.6213    0.0000 C   0  0  0  0  0  0  0  0  0  0  0  0
    9.7819    1.6557    0.0000 C   0  0  0  0  0  0  0  0  0  0  0  0
    7.6585   -7.1192    0.0000 C   0  0  2  0  0  0  0  0  0  0  0  0
    7.7248    2.9854    0.0000 C   0  0  2  0  0  0  0  0  0  0  0  0
    7.6585   -8.1192    0.0000 C   0  0  1  0  0  0  0  0  0  0  0  0
    8.7025    3.1954    0.0000 C   0  0  1  0  0  0  0  0  0  0  0  0
   10.5237    2.3264    0.0000 C   0  0  0  0  0  0  0  0  0  0  0  0
    6.7924   -8.6192    0.0000 C   0  0  2  0  0  0  0  0  0  0  0  0
    9.0095    4.1471    0.0000 C   0  0  2  0  0  0  0  0  0  0  0  0
    5.9264   -7.1192    0.0000 C   0  0  1  0  0  0  0  0  0  0  0  0
    7.3611    4.6788    0.0000 C   0  0  1  0  0  0  0  0  0  0  0  0
    5.9264   -8.1192    0.0000 C   0  0  1  0  0  0  0  0  0  0  0  0
    8.3388    4.8888    0.0000 C   0  0  1  0  0  0  0  0  0  0  0  0
   11.4754    2.0194    0.0000 C   0  0  0  0  0  0  0  0  0  0  0  0
    6.6904    5.4206    0.0000 C   0  0  0  0  0  0  0  0  0  0  0  0
    5.0604   -6.6192    0.0000 C   0  0  0  0  0  0  0  0  0  0  0  0
   12.2171    2.6901    0.0000 C   0  0  0  0  0  0  0  0  0  0  0  0
   11.6853    1.0417    0.0000 C   0  0  0  0  0  0  0  0  0  0  0  0
    5.0420    5.9523    0.0000 C   0  0  2  0  0  0  0  0  0  0  0  0
    4.0642    5.7423    0.0000 C   0  0  1  0  0  0  0  0  0  0  0  0
    3.3935    6.4840    0.0000 C   0  0  2  0  0  0  0  0  0  0  0  0
    4.6782    7.6457    0.0000 C   0  0  1  0  0  0  0  0  0  0  0  0
    3.7005    7.4358    0.0000 C   0  0  1  0  0  0  0  0  0  0  0  0
    4.9852    8.5974    0.0000 C   0  0  0  0  0  0  0  0  0  0  0  0
    9.2959   -2.8502    0.0000 H   0  0  0  0  0  0  0  0  0  0  0  0
    7.8648    0.0755    0.0000 H   0  0  0  0  0  0  0  0  0  0  0  0
   10.1889   -4.4075    0.0000 H   0  0  0  0  0  0  0  0  0  0  0  0
   10.9495   -2.5214    0.0000 H   0  0  0  0  0  0  0  0  0  0  0  0
   10.5398   -1.8363    0.0000 H   0  0  0  0  0  0  0  0  0  0  0  0
    9.0618    1.3446    0.0000 H   0  0  0  0  0  0  0  0  0  0  0  0
    7.0825   -1.8204    0.0000 H   0  0  0  0  0  0  0  0  0  0  0  0
    7.4837   -2.5091    0.0000 H   0  0  0  0  0  0  0  0  0  0  0  0
    7.1539   -1.2378    0.0000 H   0  0  0  0  0  0  0  0  0  0  0  0
   10.5235   -0.7485    0.0000 H   0  0  0  0  0  0  0  0  0  0  0  0
   10.6914    0.0637    0.0000 H   0  0  0  0  0  0  0  0  0  0  0  0
   10.5653   -4.0451    0.0000 H   0  0  0  0  0  0  0  0  0  0  0  0
   10.9591   -3.3508    0.0000 H   0  0  0  0  0  0  0  0  0  0  0  0
   10.3364    0.8512    0.0000 H   0  0  0  0  0  0  0  0  0  0  0  0
    9.6164    1.2631    0.0000 H   0  0  0  0  0  0  0  0  0  0  0  0
    7.3972   -3.4021    0.0000 H   0  0  0  0  0  0  0  0  0  0  0  0
    6.9875   -4.0872    0.0000 H   0  0  0  0  0  0  0  0  0  0  0  0
   10.5197   -2.3517    0.0000 H   0  0  0  0  0  0  0  0  0  0  0  0
   11.0198   -1.6316    0.0000 H   0  0  0  0  0  0  0  0  0  0  0  0
   10.2997   -1.1314    0.0000 H   0  0  0  0  0  0  0  0  0  0  0  0
   10.3019   -1.6999    0.0000 H   0  0  0  0  0  0  0  0  0  0  0  0
   11.0182   -1.1942    0.0000 H   0  0  0  0  0  0  0  0  0  0  0  0
   10.5125   -0.4779    0.0000 H   0  0  0  0  0  0  0  0  0  0  0  0
    7.9974   -2.4248    0.0000 H   0  0  0  0  0  0  0  0  0  0  0  0
    7.1496   -2.6485    0.0000 H   0  0  0  0  0  0  0  0  0  0  0  0
    7.3732   -3.4963    0.0000 H   0  0  0  0  0  0  0  0  0  0  0  0
    7.9870   -5.9282    0.0000 H   0  0  0  0  0  0  0  0  0  0  0  0
    6.9774   -4.9600    0.0000 H   0  0  0  0  0  0  0  0  0  0  0  0
    7.3712   -5.6544    0.0000 H   0  0  0  0  0  0  0  0  0  0  0  0
    9.4342   -6.2494    0.0000 H   0  0  0  0  0  0  0  0  0  0  0  0
   10.2828   -6.4698    0.0000 H   0  0  0  0  0  0  0  0  0  0  0  0
   10.5032   -5.6211    0.0000 H   0  0  0  0  0  0  0  0  0  0  0  0
   10.4668   -5.6854    0.0000 H   0  0  0  0  0  0  0  0  0  0  0  0
   11.0820   -5.0606    0.0000 H   0  0  0  0  0  0  0  0  0  0  0  0
   10.4572   -4.4454    0.0000 H   0  0  0  0  0  0  0  0  0  0  0  0
    6.2860   -0.7411    0.0000 H   0  0  0  0  0  0  0  0  0  0  0  0
    9.1201    2.5107    0.0000 H   0  0  0  0  0  0  0  0  0  0  0  0
    8.3408    2.3434    0.0000 H   0  0  0  0  0  0  0  0  0  0  0  0
    6.9309    1.0811    0.0000 H   0  0  0  0  0  0  0  0  0  0  0  0
    6.8869    0.2054    0.0000 H   0  0  0  0  0  0  0  0  0  0  0  0
    7.7626    0.1614    0.0000 H   0  0  0  0  0  0  0  0  0  0  0  0
    9.4920    1.1076    0.0000 H   0  0  0  0  0  0  0  0  0  0  0  0
   10.2713    1.2750    0.0000 H   0  0  0  0  0  0  0  0  0  0  0  0
    7.6585   -6.4992    0.0000 H   0  0  0  0  0  0  0  0  0  0  0  0
    7.1186    2.8552    0.0000 H   0  0  0  0  0  0  0  0  0  0  0  0
    7.6585   -8.7392    0.0000 H   0  0  0  0  0  0  0  0  0  0  0  0
    9.3087    3.3256    0.0000 H   0  0  0  0  0  0  0  0  0  0  0  0
   10.3935    2.9326    0.0000 H   0  0  0  0  0  0  0  0  0  0  0  0
    6.2555   -8.9292    0.0000 H   0  0  0  0  0  0  0  0  0  0  0  0
    9.1998    4.7372    0.0000 H   0  0  0  0  0  0  0  0  0  0  0  0
    5.9264   -6.4992    0.0000 H   0  0  0  0  0  0  0  0  0  0  0  0
    6.7549    4.5486    0.0000 H   0  0  0  0  0  0  0  0  0  0  0  0
    5.3895   -7.8092    0.0000 H   0  0  0  0  0  0  0  0  0  0  0  0
    7.9229    5.3487    0.0000 H   0  0  0  0  0  0  0  0  0  0  0  0
    8.5245   -9.2392    0.0000 H   0  0  0  0  0  0  0  0  0  0  0  0
    9.9794    2.5839    0.0000 H   0  0  0  0  0  0  0  0  0  0  0  0
    7.2155    5.7502    0.0000 H   0  0  0  0  0  0  0  0  0  0  0  0
    6.4569    5.9949    0.0000 H   0  0  0  0  0  0  0  0  0  0  0  0
    5.4589   -6.1443    0.0000 H   0  0  0  0  0  0  0  0  0  0  0  0
    4.6619   -6.1443    0.0000 H   0  0  0  0  0  0  0  0  0  0  0  0
    6.2555   -9.9292    0.0000 H   0  0  0  0  0  0  0  0  0  0  0  0
   10.1775    4.9472    0.0000 H   0  0  0  0  0  0  0  0  0  0  0  0
   11.0792    0.9115    0.0000 H   0  0  0  0  0  0  0  0  0  0  0  0
   11.8155    0.4355    0.0000 H   0  0  0  0  0  0  0  0  0  0  0  0
   12.2915    1.1719    0.0000 H   0  0  0  0  0  0  0  0  0  0  0  0
   12.6329    2.2302    0.0000 H   0  0  0  0  0  0  0  0  0  0  0  0
   12.6770    3.1060    0.0000 H   0  0  0  0  0  0  0  0  0  0  0  0
   11.8012    3.1500    0.0000 H   0  0  0  0  0  0  0  0  0  0  0  0
    5.0604   -9.2392    0.0000 H   0  0  0  0  0  0  0  0  0  0  0  0
    8.2299    6.3004    0.0000 H   0  0  0  0  0  0  0  0  0  0  0  0
    3.6574   -6.8092    0.0000 H   0  0  0  0  0  0  0  0  0  0  0  0
    4.8516    5.3622    0.0000 H   0  0  0  0  0  0  0  0  0  0  0  0
    3.4581    5.6121    0.0000 H   0  0  0  0  0  0  0  0  0  0  0  0
    2.9777    6.9439    0.0000 H   0  0  0  0  0  0  0  0  0  0  0  0
    5.2844    7.7759    0.0000 H   0  0  0  0  0  0  0  0  0  0  0  0
    3.8909    8.0258    0.0000 H   0  0  0  0  0  0  0  0  0  0  0  0
    3.1511    4.6604    0.0000 H   0  0  0  0  0  0  0  0  0  0  0  0
    5.5333    8.3075    0.0000 H   0  0  0  0  0  0  0  0  0  0  0  0
    5.3659    9.0868    0.0000 H   0  0  0  0  0  0  0  0  0  0  0  0
    2.0000    6.7339    0.0000 H   0  0  0  0  0  0  0  0  0  0  0  0
    2.4236    8.0473    0.0000 H   0  0  0  0  0  0  0  0  0  0  0  0
    4.5049    9.9292    0.0000 H   0  0  0  0  0  0  0  0  0  0  0  0
 28  1  1  1  0  0  0
  1102  1  0  0  0  0
 37  2  1  1  0  0  0
 45  2  1  1  0  0  0
 38  3  1  1  0  0  0
 46  3  1  6  0  0  0
  4 45  1  0  0  0  0
  4 52  1  0  0  0  0
  5 46  1  0  0  0  0
  5 53  1  0  0  0  0
 47  6  1  6  0  0  0
  6121  1  0  0  0  0
 48  7  1  1  0  0  0
  7122  1  0  0  0  0
 50  8  1  1  0  0  0
  8127  1  0  0  0  0
 51  9  1  6  0  0  0
  9128  1  0  0  0  0
 54 10  1  6  0  0  0
 10135  1  0  0  0  0
 55 11  1  1  0  0  0
 11136  1  0  0  0  0
 12 57  1  0  0  0  0
 61 12  1  1  0  0  0
 13 58  1  0  0  0  0
 13137  1  0  0  0  0
 14 61  1  0  0  0  0
 14 64  1  0  0  0  0
 62 15  1  6  0  0  0
 15143  1  0  0  0  0
 63 16  1  1  0  0  0
 16146  1  0  0  0  0
 65 17  1  6  0  0  0
 17147  1  0  0  0  0
 18 66  1  0  0  0  0
 18148  1  0  0  0  0
 19 20  1  0  0  0  0
 19 21  1  0  0  0  0
 19 25  1  0  0  0  0
 19 34  1  1  0  0  0
 20 23  1  0  0  0  0
 20 29  1  0  0  0  0
 20 35  1  6  0  0  0
 21 22  1  0  0  0  0
 21 27  1  0  0  0  0
 21 67  1  6  0  0  0
 22 24  1  0  0  0  0
 22 33  1  0  0  0  0
 22 36  1  1  0  0  0
 23 26  1  0  0  0  0
 23 28  1  0  0  0  0
 23 68  1  1  0  0  0
 24 30  1  0  0  0  0
 24 31  1  0  0  0  0
 24 69  1  6  0  0  0
 25 30  1  0  0  0  0
 25 70  1  0  0  0  0
 25 71  1  0  0  0  0
 26 32  1  0  0  0  0
 26 38  1  0  0  0  0
 26 72  1  6  0  0  0
 27 28  1  0  0  0  0
 27 73  1  0  0  0  0
 27 74  1  0  0  0  0
 28 75  1  0  0  0  0
 29 32  1  0  0  0  0
 29 76  1  0  0  0  0
 29 77  1  0  0  0  0
 30 78  1  0  0  0  0
 30 79  1  0  0  0  0
 31 37  1  0  0  0  0
 31 40  1  0  0  0  0
 31 41  1  0  0  0  0
 32 80  1  0  0  0  0
 32 81  1  0  0  0  0
 33 39  1  0  0  0  0
 33 82  1  0  0  0  0
 33 83  1  0  0  0  0
 34 84  1  0  0  0  0
 34 85  1  0  0  0  0
 34 86  1  0  0  0  0
 35 87  1  0  0  0  0
 35 88  1  0  0  0  0
 35 89  1  0  0  0  0
 36 90  1  0  0  0  0
 36 91  1  0  0  0  0
 36 92  1  0  0  0  0
 37 39  1  0  0  0  0
 37 93  1  0  0  0  0
 38 42  1  0  0  0  0
 38 43  1  0  0  0  0
 39 94  1  0  0  0  0
 39 95  1  0  0  0  0
 40 99  1  0  0  0  0
 40100  1  0  0  0  0
 40101  1  0  0  0  0
 41 96  1  0  0  0  0
 41 97  1  0  0  0  0
 41 98  1  0  0  0  0
 42 44  1  0  0  0  0
 42103  1  0  0  0  0
 42104  1  0  0  0  0
 43105  1  0  0  0  0
 43106  1  0  0  0  0
 43107  1  0  0  0  0
 44 49  1  0  0  0  0
 44108  1  0  0  0  0
 44109  1  0  0  0  0
 45 47  1  0  0  0  0
 45110  1  0  0  0  0
 46 48  1  0  0  0  0
 46111  1  0  0  0  0
 47 50  1  0  0  0  0
 47112  1  0  0  0  0
 48 51  1  0  0  0  0
 48113  1  0  0  0  0
 49 56  2  0  0  0  0
 49114  1  0  0  0  0
 50 54  1  0  0  0  0
 50115  1  0  0  0  0
 51 55  1  0  0  0  0
 51116  1  0  0  0  0
 52 54  1  0  0  0  0
 52 58  1  1  0  0  0
 52117  1  0  0  0  0
 53 55  1  0  0  0  0
 53 57  1  6  0  0  0
 53118  1  0  0  0  0
 54119  1  0  0  0  0
 55120  1  0  0  0  0
 56 59  1  0  0  0  0
 56 60  1  0  0  0  0
 57123  1  0  0  0  0
 57124  1  0  0  0  0
 58125  1  0  0  0  0
 58126  1  0  0  0  0
 59132  1  0  0  0  0
 59133  1  0  0  0  0
 59134  1  0  0  0  0
 60129  1  0  0  0  0
 60130  1  0  0  0  0
 60131  1  0  0  0  0
 61 62  1  0  0  0  0
 61138  1  0  0  0  0
 62 63  1  0  0  0  0
 62139  1  0  0  0  0
 63 65  1  0  0  0  0
 63140  1  0  0  0  0
 64 65  1  0  0  0  0
 64 66  1  1  0  0  0
 64141  1  0  0  0  0
 65142  1  0  0  0  0
 66144  1  0  0  0  0
 66145  1  0  0  0  0
M  END
> <PUBCHEM_COMPOUND_CID>
44584555

> <PUBCHEM_COMPOUND_CANONICALIZED>
1

> <PUBCHEM_CACTVS_COMPLEXITY>
1680

> <PUBCHEM_CACTVS_HBOND_ACCEPTOR>
18

> <PUBCHEM_CACTVS_HBOND_DONOR>
12

> <PUBCHEM_CACTVS_ROTATABLE_BOND>
13

> <PUBCHEM_CACTVS_SUBSKEYS>
AAADcfB8PgAAAAAAAAAAAAAAAAAAAYAAAAA0aNECAAAAAGDAAAAAGgAACAAAD1SwgAMCCAAABgCAAiBCAAAAAAAgAAAACAAAAAgREAIAAQAiQAAFgAAPAAPA4PwPgAAAAAAAAADAAAYAADAAAQAACAAAAA==

> <PUBCHEM_IUPAC_OPENEYE_NAME>
(2R,3S,4S,5R,6R)-2-(hydroxymethyl)-6-[[(2R,3S,4S,5R,6S)-3,4,5-trihydroxy-6-[(1S)-1-[(3S,5R,8R,9R,10R,12R,13R,14R,17S)-12-hydroxy-4,4,8,10,14-pentamethyl-3-[(2R,3R,4S,5S,6R)-3,4,5-trihydroxy-6-(hydroxymethyl)tetrahydropyran-2-yl]oxy-2,3,5,6,7,9,11,12,13,15,16,17-dodecahydro-1H-cyclopenta[a]phenanthren-17-yl]-1,5-dimethyl-hex-4-enoxy]tetrahydropyran-2-yl]methoxy]tetrahydropyran-3,4,5-triol

> <PUBCHEM_IUPAC_CAS_NAME>
(2R,3S,4S,5R,6R)-2-(hydroxymethyl)-6-[[(2R,3S,4S,5R,6S)-3,4,5-trihydroxy-6-[(2S)-2-[(3S,5R,8R,9R,10R,12R,13R,14R,17S)-12-hydroxy-4,4,8,10,14-pentamethyl-3-[[(2R,3R,4S,5S,6R)-3,4,5-trihydroxy-6-(hydroxymethyl)-2-oxanyl]oxy]-2,3,5,6,7,9,11,12,13,15,16,17-dodecahydro-1H-cyclopenta[a]phenanthren-17-yl]-6-methylhept-5-en-2-yl]oxy-2-oxanyl]methoxy]oxane-3,4,5-triol

> <PUBCHEM_IUPAC_NAME>
(2R,3S,4S,5R,6R)-2-(hydroxymethyl)-6-[[(2R,3S,4S,5R,6S)-3,4,5-trihydroxy-6-[(2S)-2-[(3S,5R,8R,9R,10R,12R,13R,14R,17S)-12-hydroxy-4,4,8,10,14-pentamethyl-3-[(2R,3R,4S,5S,6R)-3,4,5-trihydroxy-6-(hydroxymethyl)oxan-2-yl]oxy-2,3,5,6,7,9,11,12,13,15,16,17-dodecahydro-1H-cyclopenta[a]phenanthren-17-yl]-6-methylhept-5-en-2-yl]oxyoxan-2-yl]methoxy]oxane-3,4,5-triol

> <PUBCHEM_IUPAC_SYSTEMATIC_NAME>
(2R,3S,4S,5R,6R)-2-(hydroxymethyl)-6-[[(2R,3S,4S,5R,6S)-6-[(2S)-2-[(3S,5R,8R,9R,10R,12R,13R,14R,17S)-3-[(2R,3R,4S,5S,6R)-6-(hydroxymethyl)-3,4,5-tris(oxidanyl)oxan-2-yl]oxy-4,4,8,10,14-pentamethyl-12-oxidanyl-2,3,5,6,7,9,11,12,13,15,16,17-dodecahydro-1H-cyclopenta[a]phenanthren-17-yl]-6-methyl-hept-5-en-2-yl]oxy-3,4,5-tris(oxidanyl)oxan-2-yl]methoxy]oxane-3,4,5-triol

> <PUBCHEM_IUPAC_TRADITIONAL_NAME>
(2R,3S,4S,5R,6R)-2-methylol-6-[[(2R,3S,4S,5R,6S)-3,4,5-trihydroxy-6-[(1S)-1-[(3S,5R,8R,9R,10R,12R,13R,14R,17S)-12-hydroxy-4,4,8,10,14-pentamethyl-3-[(2R,3R,4S,5S,6R)-3,4,5-trihydroxy-6-methylol-tetrahydropyran-2-yl]oxy-2,3,5,6,7,9,11,12,13,15,16,17-dodecahydro-1H-cyclopenta[a]phenanthren-17-yl]-1,5-dimethyl-hex-4-enoxy]tetrahydropyran-2-yl]methoxy]tetrahydropyran-3,4,5-triol

> <PUBCHEM_IUPAC_INCHI>
InChI=1S/C48H82O18/c1-22(2)10-9-14-48(8,66-43-40(60)37(57)34(54)27(64-43)21-61-41-38(58)35(55)32(52)25(19-49)62-41)23-11-16-47(7)31(23)24(51)18-29-45(5)15-13-30(44(3,4)28(45)12-17-46(29,47)6)65-42-39(59)36(56)33(53)26(20-50)63-42/h10,23-43,49-60H,9,11-21H2,1-8H3/t23-,24+,25+,26+,27+,28-,29+,30-,31-,32+,33+,34+,35-,36-,37-,38+,39+,40+,41+,42-,43-,45-,46+,47+,48-/m0/s1

> <PUBCHEM_IUPAC_INCHIKEY>
ZRBFCAALKKNCJG-SJYBZOGZSA-N

> <PUBCHEM_XLOGP3_AA>
1.9

> <PUBCHEM_EXACT_MASS>
946.55

> <PUBCHEM_MOLECULAR_FORMULA>
C48H82O18

> <PUBCHEM_MOLECULAR_WEIGHT>
947.166

> <PUBCHEM_OPENEYE_CAN_SMILES>
CC(=CCCC(C)(C1CCC2(C1C(CC3C2(CCC4C3(CCC(C4(C)C)OC5C(C(C(C(O5)CO)O)O)O)C)C)O)C)OC6C(C(C(C(O6)COC7C(C(C(C(O7)CO)O)O)O)O)O)O)C

> <PUBCHEM_OPENEYE_ISO_SMILES>
CC(=CCC[C@@](C)([C@H]1CC[C@@]2([C@@H]1[C@@H](C[C@H]3[C@]2(CC[C@@H]4[C@@]3(CC[C@@H](C4(C)C)O[C@H]5[C@@H]([C@H]([C@@H]([C@H](O5)CO)O)O)O)C)C)O)C)O[C@H]6[C@@H]([C@H]([C@@H]([C@H](O6)CO[C@H]7[C@@H]([C@H]([C@@H]([C@H](O7)CO)O)O)O)O)O)O)C

> <PUBCHEM_CACTVS_TPSA>
298

> <PUBCHEM_MONOISOTOPIC_WEIGHT>
946.55

> <PUBCHEM_TOTAL_CHARGE>
0

> <PUBCHEM_HEAVY_ATOM_COUNT>
66

> <PUBCHEM_ATOM_DEF_STEREO_COUNT>
25

> <PUBCHEM_ATOM_UDEF_STEREO_COUNT>
0

> <PUBCHEM_BOND_DEF_STEREO_COUNT>
0

> <PUBCHEM_BOND_UDEF_STEREO_COUNT>
0

> <PUBCHEM_ISOTOPIC_ATOM_COUNT>
0

> <PUBCHEM_COMPONENT_COUNT>
1

> <PUBCHEM_CACTVS_TAUTO_COUNT>
1

> <PUBCHEM_COORDINATE_TYPE>
1
5
255

> <PUBCHEM_BONDANNOTATIONS>
28  1  5
54  10  6
55  11  5
61  12  5
62  15  6
63  16  5
65  17  6
19  34  5
37  2  5
45  2  5
20  35  6
21  67  6
22  36  5
23  68  5
24  69  6
26  72  6
38  3  5
46  3  6
52  58  5
53  57  6
47  6  6
64  66  5
48  7  5
50  8  5
51  9  6

$$$$
