9918693
  -OEChem-11191801372D

127132  0     1  0  0  0  0  0999 V2000
    5.1643    3.3253    0.0000 O   0  0  0  0  0  0  0  0  0  0  0  0
    6.8671   -2.8649    0.0000 O   0  0  0  0  0  0  0  0  0  0  0  0
    7.1728    5.7170    0.0000 O   0  0  0  0  0  0  0  0  0  0  0  0
    5.1350   -2.8649    0.0000 O   0  0  0  0  0  0  0  0  0  0  0  0
    6.8671   -4.8649    0.0000 O   0  0  0  0  0  0  0  0  0  0  0  0
    5.1350   -5.8649    0.0000 O   0  0  0  0  0  0  0  0  0  0  0  0
    3.4030   -4.8649    0.0000 O   0  0  0  0  0  0  0  0  0  0  0  0
    6.0010   -6.3649    0.0000 O   0  0  0  0  0  0  0  0  0  0  0  0
    2.5369   -3.3649    0.0000 O   0  0  0  0  0  0  0  0  0  0  0  0
    8.5991   -5.8649    0.0000 O   0  0  0  0  0  0  0  0  0  0  0  0
    8.5991   -7.8649    0.0000 O   0  0  0  0  0  0  0  0  0  0  0  0
    6.8671   -8.8649    0.0000 O   0  0  0  0  0  0  0  0  0  0  0  0
    4.2690   -7.3649    0.0000 O   0  0  0  0  0  0  0  0  0  0  0  0
    7.7681    1.8353    0.0000 C   0  0  1  0  0  0  0  0  0  0  0  0
    7.7643    2.8353    0.0000 C   0  0  1  0  0  0  0  0  0  0  0  0
    6.9040    1.3320    0.0000 C   0  0  1  0  0  0  0  0  0  0  0  0
    6.8920    0.2904    0.0000 C   0  0  2  0  0  0  0  0  0  0  0  0
    6.8963    3.3320    0.0000 C   0  0  1  0  0  0  0  0  0  0  0  0
    7.7920   -0.2339    0.0000 C   0  0  1  0  0  0  0  0  0  0  0  0
    8.6801    1.3320    0.0000 C   0  0  0  0  0  0  0  0  0  0  0  0
    6.0361    1.8286    0.0000 C   0  0  0  0  0  0  0  0  0  0  0  0
    7.1018    4.3046    0.0000 C   0  0  2  0  0  0  0  0  0  0  0  0
    6.0322    2.8286    0.0000 C   0  0  1  0  0  0  0  0  0  0  0  0
    8.4987    3.5052    0.0000 C   0  0  0  0  0  0  0  0  0  0  0  0
    8.6921    0.2904    0.0000 C   0  0  0  0  0  0  0  0  0  0  0  0
    7.8046   -1.3188    0.0000 C   0  0  0  0  0  0  0  0  0  0  0  0
    8.0901    4.4114    0.0000 C   0  0  0  0  0  0  0  0  0  0  0  0
    5.9421   -0.2339    0.0000 C   0  0  0  0  0  0  0  0  0  0  0  0
    8.7522    2.0128    0.0000 C   0  0  0  0  0  0  0  0  0  0  0  0
    8.7497    2.6655    0.0000 C   0  0  0  0  0  0  0  0  0  0  0  0
    6.0279    0.7938    0.0000 C   0  0  0  0  0  0  0  0  0  0  0  0
    6.8671   -1.8649    0.0000 C   0  0  2  0  0  0  0  0  0  0  0  0
    5.9295   -1.3188    0.0000 C   0  0  0  0  0  0  0  0  0  0  0  0
    6.4311    5.0463    0.0000 C   0  0  2  0  0  0  0  0  0  0  0  0
    8.8046   -1.3111    0.0000 C   0  0  0  0  0  0  0  0  0  0  0  0
    8.3113   -2.1809    0.0000 C   0  0  0  0  0  0  0  0  0  0  0  0
    5.7604    5.7880    0.0000 C   0  0  0  0  0  0  0  0  0  0  0  0
    5.6894    4.3756    0.0000 C   0  0  0  0  0  0  0  0  0  0  0  0
    6.0674    6.7397    0.0000 C   0  0  0  0  0  0  0  0  0  0  0  0
    6.0010   -3.3649    0.0000 C   0  0  2  0  0  0  0  0  0  0  0  0
    6.0010   -4.3649    0.0000 C   0  0  1  0  0  0  0  0  0  0  0  0
    5.3966    7.4815    0.0000 C   0  0  0  0  0  0  0  0  0  0  0  0
    5.1350   -4.8649    0.0000 C   0  0  2  0  0  0  0  0  0  0  0  0
    4.2690   -3.3649    0.0000 C   0  0  1  0  0  0  0  0  0  0  0  0
    4.2690   -4.3649    0.0000 C   0  0  1  0  0  0  0  0  0  0  0  0
    5.7036    8.4332    0.0000 C   0  0  0  0  0  0  0  0  0  0  0  0
    3.4030   -2.8649    0.0000 C   0  0  0  0  0  0  0  0  0  0  0  0
    6.8671   -5.8649    0.0000 C   0  0  2  0  0  0  0  0  0  0  0  0
    5.0329    9.1749    0.0000 C   0  0  0  0  0  0  0  0  0  0  0  0
    6.6814    8.6432    0.0000 C   0  0  0  0  0  0  0  0  0  0  0  0
    7.7331   -6.3649    0.0000 C   0  0  1  0  0  0  0  0  0  0  0  0
    7.7331   -7.3649    0.0000 C   0  0  2  0  0  0  0  0  0  0  0  0
    6.0010   -7.3649    0.0000 C   0  0  1  0  0  0  0  0  0  0  0  0
    6.8671   -7.8649    0.0000 C   0  0  1  0  0  0  0  0  0  0  0  0
    5.1350   -7.8649    0.0000 C   0  0  0  0  0  0  0  0  0  0  0  0
    7.6385    0.9042    0.0000 H   0  0  0  0  0  0  0  0  0  0  0  0
    6.2074    3.8298    0.0000 H   0  0  0  0  0  0  0  0  0  0  0  0
    8.5314   -0.6532    0.0000 H   0  0  0  0  0  0  0  0  0  0  0  0
    9.2921    1.2330    0.0000 H   0  0  0  0  0  0  0  0  0  0  0  0
    8.8824    1.9181    0.0000 H   0  0  0  0  0  0  0  0  0  0  0  0
    5.4251    1.9340    0.0000 H   0  0  0  0  0  0  0  0  0  0  0  0
    5.8263    1.2452    0.0000 H   0  0  0  0  0  0  0  0  0  0  0  0
    7.4044    5.0989    0.0000 H   0  0  0  0  0  0  0  0  0  0  0  0
    6.0298    3.4486    0.0000 H   0  0  0  0  0  0  0  0  0  0  0  0
    8.8661    3.0058    0.0000 H   0  0  0  0  0  0  0  0  0  0  0  0
    9.0340    3.8181    0.0000 H   0  0  0  0  0  0  0  0  0  0  0  0
    8.9079   -0.2908    0.0000 H   0  0  0  0  0  0  0  0  0  0  0  0
    9.3017    0.4036    0.0000 H   0  0  0  0  0  0  0  0  0  0  0  0
    8.6790    4.6055    0.0000 H   0  0  0  0  0  0  0  0  0  0  0  0
    7.9590    5.0174    0.0000 H   0  0  0  0  0  0  0  0  0  0  0  0
    5.7398    0.3522    0.0000 H   0  0  0  0  0  0  0  0  0  0  0  0
    5.3300   -0.3329    0.0000 H   0  0  0  0  0  0  0  0  0  0  0  0
    8.8623    1.4026    0.0000 H   0  0  0  0  0  0  0  0  0  0  0  0
    9.3624    2.1228    0.0000 H   0  0  0  0  0  0  0  0  0  0  0  0
    8.6422    2.6229    0.0000 H   0  0  0  0  0  0  0  0  0  0  0  0
    8.6444    2.0545    0.0000 H   0  0  0  0  0  0  0  0  0  0  0  0
    9.3607    2.5602    0.0000 H   0  0  0  0  0  0  0  0  0  0  0  0
    8.8550    3.2765    0.0000 H   0  0  0  0  0  0  0  0  0  0  0  0
    6.3400    1.3295    0.0000 H   0  0  0  0  0  0  0  0  0  0  0  0
    5.4922    1.1058    0.0000 H   0  0  0  0  0  0  0  0  0  0  0  0
    5.7158    0.2580    0.0000 H   0  0  0  0  0  0  0  0  0  0  0  0
    7.4046   -2.1739    0.0000 H   0  0  0  0  0  0  0  0  0  0  0  0
    5.3199   -1.2056    0.0000 H   0  0  0  0  0  0  0  0  0  0  0  0
    5.7137   -1.9000    0.0000 H   0  0  0  0  0  0  0  0  0  0  0  0
    7.7767   -2.4951    0.0000 H   0  0  0  0  0  0  0  0  0  0  0  0
    8.8094   -1.9311    0.0000 H   0  0  0  0  0  0  0  0  0  0  0  0
    9.4246   -1.3063    0.0000 H   0  0  0  0  0  0  0  0  0  0  0  0
    8.7998   -0.6911    0.0000 H   0  0  0  0  0  0  0  0  0  0  0  0
    8.6254   -2.7155    0.0000 H   0  0  0  0  0  0  0  0  0  0  0  0
    8.8458   -1.8668    0.0000 H   0  0  0  0  0  0  0  0  0  0  0  0
    4.6286    3.0132    0.0000 H   0  0  0  0  0  0  0  0  0  0  0  0
    5.2123    6.0779    0.0000 H   0  0  0  0  0  0  0  0  0  0  0  0
    5.3797    5.2987    0.0000 H   0  0  0  0  0  0  0  0  0  0  0  0
    5.2735    4.8355    0.0000 H   0  0  0  0  0  0  0  0  0  0  0  0
    5.2295    3.9598    0.0000 H   0  0  0  0  0  0  0  0  0  0  0  0
    6.1052    3.9157    0.0000 H   0  0  0  0  0  0  0  0  0  0  0  0
    7.0426    6.3232    0.0000 H   0  0  0  0  0  0  0  0  0  0  0  0
    6.6154    6.4498    0.0000 H   0  0  0  0  0  0  0  0  0  0  0  0
    6.4480    7.2291    0.0000 H   0  0  0  0  0  0  0  0  0  0  0  0
    6.5380   -3.6749    0.0000 H   0  0  0  0  0  0  0  0  0  0  0  0
    6.0010   -4.9849    0.0000 H   0  0  0  0  0  0  0  0  0  0  0  0
    4.7905    7.3513    0.0000 H   0  0  0  0  0  0  0  0  0  0  0  0
    4.5981   -5.1749    0.0000 H   0  0  0  0  0  0  0  0  0  0  0  0
    4.2690   -2.7449    0.0000 H   0  0  0  0  0  0  0  0  0  0  0  0
    3.7320   -4.0549    0.0000 H   0  0  0  0  0  0  0  0  0  0  0  0
    3.8015   -2.3899    0.0000 H   0  0  0  0  0  0  0  0  0  0  0  0
    3.0044   -2.3899    0.0000 H   0  0  0  0  0  0  0  0  0  0  0  0
    7.4040   -5.5549    0.0000 H   0  0  0  0  0  0  0  0  0  0  0  0
    4.5981   -6.1749    0.0000 H   0  0  0  0  0  0  0  0  0  0  0  0
    3.4030   -5.4849    0.0000 H   0  0  0  0  0  0  0  0  0  0  0  0
    5.4928    9.5907    0.0000 H   0  0  0  0  0  0  0  0  0  0  0  0
    4.6171    9.6348    0.0000 H   0  0  0  0  0  0  0  0  0  0  0  0
    6.8116    8.0370    0.0000 H   0  0  0  0  0  0  0  0  0  0  0  0
    4.5731    8.7591    0.0000 H   0  0  0  0  0  0  0  0  0  0  0  0
    7.2875    8.7734    0.0000 H   0  0  0  0  0  0  0  0  0  0  0  0
    6.5512    9.2493    0.0000 H   0  0  0  0  0  0  0  0  0  0  0  0
    8.2700   -6.6749    0.0000 H   0  0  0  0  0  0  0  0  0  0  0  0
    2.0000   -3.0549    0.0000 H   0  0  0  0  0  0  0  0  0  0  0  0
    7.7331   -7.9849    0.0000 H   0  0  0  0  0  0  0  0  0  0  0  0
    5.4641   -7.0549    0.0000 H   0  0  0  0  0  0  0  0  0  0  0  0
    6.3301   -8.1749    0.0000 H   0  0  0  0  0  0  0  0  0  0  0  0
    8.5991   -5.2449    0.0000 H   0  0  0  0  0  0  0  0  0  0  0  0
    4.7365   -8.3398    0.0000 H   0  0  0  0  0  0  0  0  0  0  0  0
    5.5335   -8.3398    0.0000 H   0  0  0  0  0  0  0  0  0  0  0  0
    8.5991   -8.4849    0.0000 H   0  0  0  0  0  0  0  0  0  0  0  0
    6.3301   -9.1749    0.0000 H   0  0  0  0  0  0  0  0  0  0  0  0
    3.7320   -7.6749    0.0000 H   0  0  0  0  0  0  0  0  0  0  0  0
 23  1  1  1  0  0  0
  1 91  1  0  0  0  0
 32  2  1  1  0  0  0
 40  2  1  1  0  0  0
 34  3  1  1  0  0  0
  3 97  1  0  0  0  0
  4 40  1  0  0  0  0
  4 44  1  0  0  0  0
 41  5  1  6  0  0  0
 48  5  1  1  0  0  0
 43  6  1  1  0  0  0
  6109  1  0  0  0  0
 45  7  1  6  0  0  0
  7110  1  0  0  0  0
  8 48  1  0  0  0  0
  8 53  1  0  0  0  0
  9 47  1  0  0  0  0
  9118  1  0  0  0  0
 51 10  1  6  0  0  0
 10122  1  0  0  0  0
 52 11  1  1  0  0  0
 11125  1  0  0  0  0
 54 12  1  6  0  0  0
 12126  1  0  0  0  0
 13 55  1  0  0  0  0
 13127  1  0  0  0  0
 14 15  1  0  0  0  0
 14 16  1  0  0  0  0
 14 20  1  0  0  0  0
 14 29  1  1  0  0  0
 15 18  1  0  0  0  0
 15 24  1  0  0  0  0
 15 30  1  6  0  0  0
 16 17  1  0  0  0  0
 16 21  1  0  0  0  0
 16 56  1  6  0  0  0
 17 19  1  0  0  0  0
 17 28  1  0  0  0  0
 17 31  1  1  0  0  0
 18 22  1  0  0  0  0
 18 23  1  0  0  0  0
 18 57  1  1  0  0  0
 19 25  1  0  0  0  0
 19 26  1  0  0  0  0
 19 58  1  6  0  0  0
 20 25  1  0  0  0  0
 20 59  1  0  0  0  0
 20 60  1  0  0  0  0
 21 23  1  0  0  0  0
 21 61  1  0  0  0  0
 21 62  1  0  0  0  0
 22 27  1  0  0  0  0
 22 34  1  0  0  0  0
 22 63  1  6  0  0  0
 23 64  1  0  0  0  0
 24 27  1  0  0  0  0
 24 65  1  0  0  0  0
 24 66  1  0  0  0  0
 25 67  1  0  0  0  0
 25 68  1  0  0  0  0
 26 32  1  0  0  0  0
 26 35  1  0  0  0  0
 26 36  1  0  0  0  0
 27 69  1  0  0  0  0
 27 70  1  0  0  0  0
 28 33  1  0  0  0  0
 28 71  1  0  0  0  0
 28 72  1  0  0  0  0
 29 73  1  0  0  0  0
 29 74  1  0  0  0  0
 29 75  1  0  0  0  0
 30 76  1  0  0  0  0
 30 77  1  0  0  0  0
 30 78  1  0  0  0  0
 31 79  1  0  0  0  0
 31 80  1  0  0  0  0
 31 81  1  0  0  0  0
 32 33  1  0  0  0  0
 32 82  1  0  0  0  0
 33 83  1  0  0  0  0
 33 84  1  0  0  0  0
 34 37  1  0  0  0  0
 34 38  1  0  0  0  0
 35 86  1  0  0  0  0
 35 87  1  0  0  0  0
 35 88  1  0  0  0  0
 36 85  1  0  0  0  0
 36 89  1  0  0  0  0
 36 90  1  0  0  0  0
 37 39  1  0  0  0  0
 37 92  1  0  0  0  0
 37 93  1  0  0  0  0
 38 94  1  0  0  0  0
 38 95  1  0  0  0  0
 38 96  1  0  0  0  0
 39 42  1  0  0  0  0
 39 98  1  0  0  0  0
 39 99  1  0  0  0  0
 40 41  1  0  0  0  0
 40100  1  0  0  0  0
 41 43  1  0  0  0  0
 41101  1  0  0  0  0
 42 46  2  0  0  0  0
 42102  1  0  0  0  0
 43 45  1  0  0  0  0
 43103  1  0  0  0  0
 44 45  1  0  0  0  0
 44 47  1  1  0  0  0
 44104  1  0  0  0  0
 45105  1  0  0  0  0
 46 49  1  0  0  0  0
 46 50  1  0  0  0  0
 47106  1  0  0  0  0
 47107  1  0  0  0  0
 48 51  1  0  0  0  0
 48108  1  0  0  0  0
 49111  1  0  0  0  0
 49112  1  0  0  0  0
 49114  1  0  0  0  0
 50113  1  0  0  0  0
 50115  1  0  0  0  0
 50116  1  0  0  0  0
 51 52  1  0  0  0  0
 51117  1  0  0  0  0
 52 54  1  0  0  0  0
 52119  1  0  0  0  0
 53 54  1  0  0  0  0
 53 55  1  1  0  0  0
 53120  1  0  0  0  0
 54121  1  0  0  0  0
 55123  1  0  0  0  0
 55124  1  0  0  0  0
M  END
> <PUBCHEM_COMPOUND_CID>
9918693

> <PUBCHEM_COMPOUND_CANONICALIZED>
1

> <PUBCHEM_CACTVS_COMPLEXITY>
1370

> <PUBCHEM_CACTVS_HBOND_ACCEPTOR>
13

> <PUBCHEM_CACTVS_HBOND_DONOR>
9

> <PUBCHEM_CACTVS_ROTATABLE_BOND>
10

> <PUBCHEM_CACTVS_SUBSKEYS>
AAADcfB8PAAAAAAAAAAAAAAAAAAAAYAAAAA0aMECAAAAAGDAAAAAGgAACAAAD1SwgAMCCAAABgCAAiBCAAAAAAAgAAAACAAAAAgREAIAAQAiQAAFgAAPAAPA4PwPgAAAAAAAAADAAAYAADAAAQAACAAAAA==

> <PUBCHEM_IUPAC_OPENEYE_NAME>
(2S,3R,4S,5S,6R)-2-[(2R,3R,4S,5S,6R)-4,5-dihydroxy-2-[[(3S,5R,8R,9R,10R,12R,13R,14R,17S)-12-hydroxy-17-[(1S)-1-hydroxy-1,5-dimethyl-hex-4-enyl]-4,4,8,10,14-pentamethyl-2,3,5,6,7,9,11,12,13,15,16,17-dodecahydro-1H-cyclopenta[a]phenanthren-3-yl]oxy]-6-(hydroxymethyl)tetrahydropyran-3-yl]oxy-6-(hydroxymethyl)tetrahydropyran-3,4,5-triol

> <PUBCHEM_IUPAC_CAS_NAME>
(2S,3R,4S,5S,6R)-2-[[(2R,3R,4S,5S,6R)-4,5-dihydroxy-2-[[(3S,5R,8R,9R,10R,12R,13R,14R,17S)-12-hydroxy-17-[(2S)-2-hydroxy-6-methylhept-5-en-2-yl]-4,4,8,10,14-pentamethyl-2,3,5,6,7,9,11,12,13,15,16,17-dodecahydro-1H-cyclopenta[a]phenanthren-3-yl]oxy]-6-(hydroxymethyl)-3-oxanyl]oxy]-6-(hydroxymethyl)oxane-3,4,5-triol

> <PUBCHEM_IUPAC_NAME>
(2S,3R,4S,5S,6R)-2-[(2R,3R,4S,5S,6R)-4,5-dihydroxy-2-[[(3S,5R,8R,9R,10R,12R,13R,14R,17S)-12-hydroxy-17-[(2S)-2-hydroxy-6-methylhept-5-en-2-yl]-4,4,8,10,14-pentamethyl-2,3,5,6,7,9,11,12,13,15,16,17-dodecahydro-1H-cyclopenta[a]phenanthren-3-yl]oxy]-6-(hydroxymethyl)oxan-3-yl]oxy-6-(hydroxymethyl)oxane-3,4,5-triol

> <PUBCHEM_IUPAC_SYSTEMATIC_NAME>
(2R,3S,4S,5R,6S)-2-(hydroxymethyl)-6-[(2R,3R,4S,5S,6R)-6-(hydroxymethyl)-4,5-bis(oxidanyl)-2-[[(3S,5R,8R,9R,10R,12R,13R,14R,17S)-4,4,8,10,14-pentamethyl-17-[(2S)-6-methyl-2-oxidanyl-hept-5-en-2-yl]-12-oxidanyl-2,3,5,6,7,9,11,12,13,15,16,17-dodecahydro-1H-cyclopenta[a]phenanthren-3-yl]oxy]oxan-3-yl]oxy-oxane-3,4,5-triol

> <PUBCHEM_IUPAC_TRADITIONAL_NAME>
(2S,3R,4S,5S,6R)-2-[(2R,3R,4S,5S,6R)-4,5-dihydroxy-2-[[(3S,5R,8R,9R,10R,12R,13R,14R,17S)-12-hydroxy-17-[(1S)-1-hydroxy-1,5-dimethyl-hex-4-enyl]-4,4,8,10,14-pentamethyl-2,3,5,6,7,9,11,12,13,15,16,17-dodecahydro-1H-cyclopenta[a]phenanthren-3-yl]oxy]-6-methylol-tetrahydropyran-3-yl]oxy-6-methylol-tetrahydropyran-3,4,5-triol

> <PUBCHEM_IUPAC_INCHI>
InChI=1S/C42H72O13/c1-21(2)10-9-14-42(8,51)22-11-16-41(7)29(22)23(45)18-27-39(5)15-13-28(38(3,4)26(39)12-17-40(27,41)6)54-37-35(33(49)31(47)25(20-44)53-37)55-36-34(50)32(48)30(46)24(19-43)52-36/h10,22-37,43-51H,9,11-20H2,1-8H3/t22-,23+,24+,25+,26-,27+,28-,29-,30+,31+,32-,33-,34+,35+,36-,37-,39-,40+,41+,42-/m0/s1

> <PUBCHEM_IUPAC_INCHIKEY>
RWXIFXNRCLMQCD-JBVRGBGGSA-N

> <PUBCHEM_XLOGP3_AA>
4

> <PUBCHEM_EXACT_MASS>
784.497

> <PUBCHEM_MOLECULAR_FORMULA>
C42H72O13

> <PUBCHEM_MOLECULAR_WEIGHT>
785.025

> <PUBCHEM_OPENEYE_CAN_SMILES>
CC(=CCCC(C)(C1CCC2(C1C(CC3C2(CCC4C3(CCC(C4(C)C)OC5C(C(C(C(O5)CO)O)O)OC6C(C(C(C(O6)CO)O)O)O)C)C)O)C)O)C

> <PUBCHEM_OPENEYE_ISO_SMILES>
CC(=CCC[C@@](C)([C@H]1CC[C@@]2([C@@H]1[C@@H](C[C@H]3[C@]2(CC[C@@H]4[C@@]3(CC[C@@H](C4(C)C)O[C@H]5[C@@H]([C@H]([C@@H]([C@H](O5)CO)O)O)O[C@H]6[C@@H]([C@H]([C@@H]([C@H](O6)CO)O)O)O)C)C)O)C)O)C

> <PUBCHEM_CACTVS_TPSA>
219

> <PUBCHEM_MONOISOTOPIC_WEIGHT>
784.497

> <PUBCHEM_TOTAL_CHARGE>
0

> <PUBCHEM_HEAVY_ATOM_COUNT>
55

> <PUBCHEM_ATOM_DEF_STEREO_COUNT>
20

> <PUBCHEM_ATOM_UDEF_STEREO_COUNT>
0

> <PUBCHEM_BOND_DEF_STEREO_COUNT>
0

> <PUBCHEM_BOND_UDEF_STEREO_COUNT>
0

> <PUBCHEM_ISOTOPIC_ATOM_COUNT>
0

> <PUBCHEM_COMPONENT_COUNT>
1

> <PUBCHEM_CACTVS_TAUTO_COUNT>
1

> <PUBCHEM_COORDINATE_TYPE>
1
5
255

> <PUBCHEM_BONDANNOTATIONS>
23  1  5
51  10  6
52  11  5
54  12  6
14  29  5
15  30  6
16  56  6
17  31  5
18  57  5
19  58  6
32  2  5
40  2  5
22  63  6
34  3  5
44  47  5
41  5  6
48  5  5
53  55  5
43  6  5
45  7  6

$$$$
