9852086
  -OEChem-11191801362D

106110  0     1  0  0  0  0  0999 V2000
    8.0949   -0.7290    0.0000 O   0  0  0  0  0  0  0  0  0  0  0  0
    6.0010   -2.1558    0.0000 O   0  0  0  0  0  0  0  0  0  0  0  0
   10.9838    5.0045    0.0000 O   0  0  0  0  0  0  0  0  0  0  0  0
    4.2690   -2.1558    0.0000 O   0  0  0  0  0  0  0  0  0  0  0  0
    6.0010   -4.1558    0.0000 O   0  0  0  0  0  0  0  0  0  0  0  0
    4.2690   -5.1558    0.0000 O   0  0  0  0  0  0  0  0  0  0  0  0
    2.5369   -4.1558    0.0000 O   0  0  0  0  0  0  0  0  0  0  0  0
    2.5369   -1.1558    0.0000 O   0  0  0  0  0  0  0  0  0  0  0  0
    7.1630    2.1226    0.0000 C   0  0  1  0  0  0  0  0  0  0  0  0
    6.4951    1.3783    0.0000 C   0  0  1  0  0  0  0  0  0  0  0  0
    8.1415    1.9164    0.0000 C   0  0  1  0  0  0  0  0  0  0  0  0
    8.8490    2.6808    0.0000 C   0  0  2  0  0  0  0  0  0  0  0  0
    6.8058    0.4278    0.0000 C   0  0  1  0  0  0  0  0  0  0  0  0
    8.5330    3.6734    0.0000 C   0  0  1  0  0  0  0  0  0  0  0  0
    6.8241    3.1076    0.0000 C   0  0  0  0  0  0  0  0  0  0  0  0
    6.0010   -0.1558    0.0000 C   0  0  2  0  0  0  0  0  0  0  0  0
    8.4521    0.9659    0.0000 C   0  0  0  0  0  0  0  0  0  0  0  0
    7.7843    0.2216    0.0000 C   0  0  1  0  0  0  0  0  0  0  0  0
    5.5010    1.3740    0.0000 C   0  0  0  0  0  0  0  0  0  0  0  0
    7.5138    3.8882    0.0000 C   0  0  0  0  0  0  0  0  0  0  0  0
    9.2514    4.4865    0.0000 C   0  0  0  0  0  0  0  0  0  0  0  0
    5.1963    0.4278    0.0000 C   0  0  0  0  0  0  0  0  0  0  0  0
    9.9052    2.4326    0.0000 C   0  0  0  0  0  0  0  0  0  0  0  0
    6.3140    2.6510    0.0000 C   0  0  0  0  0  0  0  0  0  0  0  0
    5.8781    2.1652    0.0000 C   0  0  0  0  0  0  0  0  0  0  0  0
    9.1523    1.7280    0.0000 C   0  0  0  0  0  0  0  0  0  0  0  0
    6.0010   -1.1558    0.0000 C   0  0  2  0  0  0  0  0  0  0  0  0
   10.3131    4.2628    0.0000 C   0  0  2  0  0  0  0  0  0  0  0  0
   10.6422    3.2289    0.0000 C   0  0  0  0  0  0  0  0  0  0  0  0
    9.4538    5.4658    0.0000 C   0  0  0  0  0  0  0  0  0  0  0  0
    8.5045    5.1515    0.0000 C   0  0  0  0  0  0  0  0  0  0  0  0
    7.0010   -1.1558    0.0000 C   0  0  0  0  0  0  0  0  0  0  0  0
    5.0010   -1.1558    0.0000 C   0  0  0  0  0  0  0  0  0  0  0  0
    7.5010   -2.0218    0.0000 C   0  0  0  0  0  0  0  0  0  0  0  0
    5.1350   -2.6558    0.0000 C   0  0  2  0  0  0  0  0  0  0  0  0
    5.1350   -3.6558    0.0000 C   0  0  1  0  0  0  0  0  0  0  0  0
    8.5010   -2.0218    0.0000 C   0  0  0  0  0  0  0  0  0  0  0  0
    4.2690   -4.1558    0.0000 C   0  0  2  0  0  0  0  0  0  0  0  0
    3.4030   -2.6558    0.0000 C   0  0  1  0  0  0  0  0  0  0  0  0
    3.4030   -3.6558    0.0000 C   0  0  1  0  0  0  0  0  0  0  0  0
    9.0010   -2.8879    0.0000 C   0  0  0  0  0  0  0  0  0  0  0  0
    2.5369   -2.1558    0.0000 C   0  0  0  0  0  0  0  0  0  0  0  0
   10.0010   -2.8879    0.0000 C   0  0  0  0  0  0  0  0  0  0  0  0
    8.5010   -3.7539    0.0000 C   0  0  0  0  0  0  0  0  0  0  0  0
    8.9718    1.7347    0.0000 H   0  0  0  0  0  0  0  0  0  0  0  0
    6.9828   -0.4036    0.0000 H   0  0  0  0  0  0  0  0  0  0  0  0
    8.2658    4.4803    0.0000 H   0  0  0  0  0  0  0  0  0  0  0  0
    6.4366    3.5915    0.0000 H   0  0  0  0  0  0  0  0  0  0  0  0
    6.2810    2.8086    0.0000 H   0  0  0  0  0  0  0  0  0  0  0  0
    5.2438   -0.5420    0.0000 H   0  0  0  0  0  0  0  0  0  0  0  0
    8.8347    0.4780    0.0000 H   0  0  0  0  0  0  0  0  0  0  0  0
    8.9990    1.2579    0.0000 H   0  0  0  0  0  0  0  0  0  0  0  0
    7.3702   -0.2399    0.0000 H   0  0  0  0  0  0  0  0  0  0  0  0
    5.5635    1.9908    0.0000 H   0  0  0  0  0  0  0  0  0  0  0  0
    4.8942    1.5010    0.0000 H   0  0  0  0  0  0  0  0  0  0  0  0
    7.7436    4.4641    0.0000 H   0  0  0  0  0  0  0  0  0  0  0  0
    6.9857    4.2131    0.0000 H   0  0  0  0  0  0  0  0  0  0  0  0
    4.6294    0.6788    0.0000 H   0  0  0  0  0  0  0  0  0  0  0  0
    4.8871   -0.1096    0.0000 H   0  0  0  0  0  0  0  0  0  0  0  0
    9.6622    1.8622    0.0000 H   0  0  0  0  0  0  0  0  0  0  0  0
   10.4256    2.0956    0.0000 H   0  0  0  0  0  0  0  0  0  0  0  0
    6.6416    3.1774    0.0000 H   0  0  0  0  0  0  0  0  0  0  0  0
    5.7876    2.9787    0.0000 H   0  0  0  0  0  0  0  0  0  0  0  0
    5.9864    2.1247    0.0000 H   0  0  0  0  0  0  0  0  0  0  0  0
    6.3660    2.5478    0.0000 H   0  0  0  0  0  0  0  0  0  0  0  0
    5.4955    2.6532    0.0000 H   0  0  0  0  0  0  0  0  0  0  0  0
    5.3902    1.7827    0.0000 H   0  0  0  0  0  0  0  0  0  0  0  0
    8.5615    1.5399    0.0000 H   0  0  0  0  0  0  0  0  0  0  0  0
    9.3404    1.1372    0.0000 H   0  0  0  0  0  0  0  0  0  0  0  0
    9.7431    1.9160    0.0000 H   0  0  0  0  0  0  0  0  0  0  0  0
   10.9190    4.1314    0.0000 H   0  0  0  0  0  0  0  0  0  0  0  0
   11.0184    2.7361    0.0000 H   0  0  0  0  0  0  0  0  0  0  0  0
   11.1921    3.5153    0.0000 H   0  0  0  0  0  0  0  0  0  0  0  0
    8.9168    5.6146    0.0000 H   0  0  0  0  0  0  0  0  0  0  0  0
   10.0610    5.3403    0.0000 H   0  0  0  0  0  0  0  0  0  0  0  0
    9.5793    6.0730    0.0000 H   0  0  0  0  0  0  0  0  0  0  0  0
    8.8467    5.5914    0.0000 H   0  0  0  0  0  0  0  0  0  0  0  0
    8.0414    5.5638    0.0000 H   0  0  0  0  0  0  0  0  0  0  0  0
    8.0922    4.6884    0.0000 H   0  0  0  0  0  0  0  0  0  0  0  0
    8.7016   -0.8568    0.0000 H   0  0  0  0  0  0  0  0  0  0  0  0
    7.5836   -0.9438    0.0000 H   0  0  0  0  0  0  0  0  0  0  0  0
    6.8934   -0.5452    0.0000 H   0  0  0  0  0  0  0  0  0  0  0  0
    5.0010   -0.5358    0.0000 H   0  0  0  0  0  0  0  0  0  0  0  0
    4.3810   -1.1558    0.0000 H   0  0  0  0  0  0  0  0  0  0  0  0
    5.0010   -1.7758    0.0000 H   0  0  0  0  0  0  0  0  0  0  0  0
   11.5899    4.8743    0.0000 H   0  0  0  0  0  0  0  0  0  0  0  0
    6.9184   -2.2339    0.0000 H   0  0  0  0  0  0  0  0  0  0  0  0
    7.6087   -2.6324    0.0000 H   0  0  0  0  0  0  0  0  0  0  0  0
    5.1350   -2.0358    0.0000 H   0  0  0  0  0  0  0  0  0  0  0  0
    5.1350   -4.2758    0.0000 H   0  0  0  0  0  0  0  0  0  0  0  0
    8.8110   -1.4849    0.0000 H   0  0  0  0  0  0  0  0  0  0  0  0
    3.7320   -4.4658    0.0000 H   0  0  0  0  0  0  0  0  0  0  0  0
    3.4030   -2.0358    0.0000 H   0  0  0  0  0  0  0  0  0  0  0  0
    2.8660   -3.3458    0.0000 H   0  0  0  0  0  0  0  0  0  0  0  0
    6.0010   -4.7758    0.0000 H   0  0  0  0  0  0  0  0  0  0  0  0
    1.9264   -2.0482    0.0000 H   0  0  0  0  0  0  0  0  0  0  0  0
    2.3249   -2.7384    0.0000 H   0  0  0  0  0  0  0  0  0  0  0  0
    3.7320   -5.4658    0.0000 H   0  0  0  0  0  0  0  0  0  0  0  0
   10.0010   -3.5079    0.0000 H   0  0  0  0  0  0  0  0  0  0  0  0
    7.9641   -3.4439    0.0000 H   0  0  0  0  0  0  0  0  0  0  0  0
    8.1910   -4.2908    0.0000 H   0  0  0  0  0  0  0  0  0  0  0  0
    9.0380   -4.0639    0.0000 H   0  0  0  0  0  0  0  0  0  0  0  0
   10.6210   -2.8879    0.0000 H   0  0  0  0  0  0  0  0  0  0  0  0
   10.0010   -2.2679    0.0000 H   0  0  0  0  0  0  0  0  0  0  0  0
    2.0000   -3.8458    0.0000 H   0  0  0  0  0  0  0  0  0  0  0  0
    2.0000   -0.8458    0.0000 H   0  0  0  0  0  0  0  0  0  0  0  0
 18  1  1  1  0  0  0
  1 80  1  0  0  0  0
 27  2  1  6  0  0  0
 35  2  1  1  0  0  0
 28  3  1  1  0  0  0
  3 86  1  0  0  0  0
  4 35  1  0  0  0  0
  4 39  1  0  0  0  0
 36  5  1  6  0  0  0
  5 95  1  0  0  0  0
 38  6  1  1  0  0  0
  6 98  1  0  0  0  0
 40  7  1  6  0  0  0
  7105  1  0  0  0  0
  8 42  1  0  0  0  0
  8106  1  0  0  0  0
  9 10  1  0  0  0  0
  9 11  1  0  0  0  0
  9 15  1  0  0  0  0
  9 24  1  1  0  0  0
 10 13  1  0  0  0  0
 10 19  1  0  0  0  0
 10 25  1  6  0  0  0
 11 12  1  0  0  0  0
 11 17  1  0  0  0  0
 11 45  1  6  0  0  0
 12 14  1  0  0  0  0
 12 23  1  0  0  0  0
 12 26  1  1  0  0  0
 13 16  1  0  0  0  0
 13 18  1  0  0  0  0
 13 46  1  1  0  0  0
 14 20  1  0  0  0  0
 14 21  1  0  0  0  0
 14 47  1  6  0  0  0
 15 20  1  0  0  0  0
 15 48  1  0  0  0  0
 15 49  1  0  0  0  0
 16 22  1  0  0  0  0
 16 27  1  0  0  0  0
 16 50  1  6  0  0  0
 17 18  1  0  0  0  0
 17 51  1  0  0  0  0
 17 52  1  0  0  0  0
 18 53  1  0  0  0  0
 19 22  1  0  0  0  0
 19 54  1  0  0  0  0
 19 55  1  0  0  0  0
 20 56  1  0  0  0  0
 20 57  1  0  0  0  0
 21 28  1  0  0  0  0
 21 30  1  0  0  0  0
 21 31  1  0  0  0  0
 22 58  1  0  0  0  0
 22 59  1  0  0  0  0
 23 29  1  0  0  0  0
 23 60  1  0  0  0  0
 23 61  1  0  0  0  0
 24 62  1  0  0  0  0
 24 63  1  0  0  0  0
 24 64  1  0  0  0  0
 25 65  1  0  0  0  0
 25 66  1  0  0  0  0
 25 67  1  0  0  0  0
 26 68  1  0  0  0  0
 26 69  1  0  0  0  0
 26 70  1  0  0  0  0
 27 32  1  0  0  0  0
 27 33  1  0  0  0  0
 28 29  1  0  0  0  0
 28 71  1  0  0  0  0
 29 72  1  0  0  0  0
 29 73  1  0  0  0  0
 30 75  1  0  0  0  0
 30 76  1  0  0  0  0
 30 77  1  0  0  0  0
 31 74  1  0  0  0  0
 31 78  1  0  0  0  0
 31 79  1  0  0  0  0
 32 34  1  0  0  0  0
 32 81  1  0  0  0  0
 32 82  1  0  0  0  0
 33 83  1  0  0  0  0
 33 84  1  0  0  0  0
 33 85  1  0  0  0  0
 34 37  1  0  0  0  0
 34 87  1  0  0  0  0
 34 88  1  0  0  0  0
 35 36  1  0  0  0  0
 35 89  1  0  0  0  0
 36 38  1  0  0  0  0
 36 90  1  0  0  0  0
 37 41  2  0  0  0  0
 37 91  1  0  0  0  0
 38 40  1  0  0  0  0
 38 92  1  0  0  0  0
 39 40  1  0  0  0  0
 39 42  1  1  0  0  0
 39 93  1  0  0  0  0
 40 94  1  0  0  0  0
 41 43  1  0  0  0  0
 41 44  1  0  0  0  0
 42 96  1  0  0  0  0
 42 97  1  0  0  0  0
 43 99  1  0  0  0  0
 43103  1  0  0  0  0
 43104  1  0  0  0  0
 44100  1  0  0  0  0
 44101  1  0  0  0  0
 44102  1  0  0  0  0
M  END
> <PUBCHEM_COMPOUND_CID>
9852086

> <PUBCHEM_COMPOUND_CANONICALIZED>
1

> <PUBCHEM_CACTVS_COMPLEXITY>
1070

> <PUBCHEM_CACTVS_HBOND_ACCEPTOR>
8

> <PUBCHEM_CACTVS_HBOND_DONOR>
6

> <PUBCHEM_CACTVS_ROTATABLE_BOND>
7

> <PUBCHEM_CACTVS_SUBSKEYS>
AAADcfB8PAAAAAAAAAAAAAAAAAAAAYAAAAA0YMEAAAAAAGDAAAAAGgAACAAAD1SwgAMCCAAABgCAAiBCAAAAAAAgAAAACAAAAAgREAIAAQAiQAAFgAAPAAPA4PwPgAAAAAAAAADAAAYAADAAAQAACAAAAA==

> <PUBCHEM_IUPAC_OPENEYE_NAME>
(2S,3R,4S,5S,6R)-2-[(1S)-1-[(3S,5R,8R,9R,10R,12R,13R,14R,17S)-3,12-dihydroxy-4,4,8,10,14-pentamethyl-2,3,5,6,7,9,11,12,13,15,16,17-dodecahydro-1H-cyclopenta[a]phenanthren-17-yl]-1,5-dimethyl-hex-4-enoxy]-6-(hydroxymethyl)tetrahydropyran-3,4,5-triol

> <PUBCHEM_IUPAC_CAS_NAME>
(2S,3R,4S,5S,6R)-2-[(2S)-2-[(3S,5R,8R,9R,10R,12R,13R,14R,17S)-3,12-dihydroxy-4,4,8,10,14-pentamethyl-2,3,5,6,7,9,11,12,13,15,16,17-dodecahydro-1H-cyclopenta[a]phenanthren-17-yl]-6-methylhept-5-en-2-yl]oxy-6-(hydroxymethyl)oxane-3,4,5-triol

> <PUBCHEM_IUPAC_NAME>
(2S,3R,4S,5S,6R)-2-[(2S)-2-[(3S,5R,8R,9R,10R,12R,13R,14R,17S)-3,12-dihydroxy-4,4,8,10,14-pentamethyl-2,3,5,6,7,9,11,12,13,15,16,17-dodecahydro-1H-cyclopenta[a]phenanthren-17-yl]-6-methylhept-5-en-2-yl]oxy-6-(hydroxymethyl)oxane-3,4,5-triol

> <PUBCHEM_IUPAC_SYSTEMATIC_NAME>
(2R,3S,4S,5R,6S)-2-(hydroxymethyl)-6-[(2S)-6-methyl-2-[(3S,5R,8R,9R,10R,12R,13R,14R,17S)-4,4,8,10,14-pentamethyl-3,12-bis(oxidanyl)-2,3,5,6,7,9,11,12,13,15,16,17-dodecahydro-1H-cyclopenta[a]phenanthren-17-yl]hept-5-en-2-yl]oxy-oxane-3,4,5-triol

> <PUBCHEM_IUPAC_TRADITIONAL_NAME>
(2S,3R,4S,5S,6R)-2-[(1S)-1-[(3S,5R,8R,9R,10R,12R,13R,14R,17S)-3,12-dihydroxy-4,4,8,10,14-pentamethyl-2,3,5,6,7,9,11,12,13,15,16,17-dodecahydro-1H-cyclopenta[a]phenanthren-17-yl]-1,5-dimethyl-hex-4-enoxy]-6-methylol-tetrahydropyran-3,4,5-triol

> <PUBCHEM_IUPAC_INCHI>
InChI=1S/C36H62O8/c1-20(2)10-9-14-36(8,44-31-30(42)29(41)28(40)23(19-37)43-31)21-11-16-35(7)27(21)22(38)18-25-33(5)15-13-26(39)32(3,4)24(33)12-17-34(25,35)6/h10,21-31,37-42H,9,11-19H2,1-8H3/t21-,22+,23+,24-,25+,26-,27-,28+,29-,30+,31-,33-,34+,35+,36-/m0/s1

> <PUBCHEM_IUPAC_INCHIKEY>
FVIZARNDLVOMSU-IRFFNABBSA-N

> <PUBCHEM_XLOGP3_AA>
5.6

> <PUBCHEM_EXACT_MASS>
622.444

> <PUBCHEM_MOLECULAR_FORMULA>
C36H62O8

> <PUBCHEM_MOLECULAR_WEIGHT>
622.884

> <PUBCHEM_OPENEYE_CAN_SMILES>
CC(=CCCC(C)(C1CCC2(C1C(CC3C2(CCC4C3(CCC(C4(C)C)O)C)C)O)C)OC5C(C(C(C(O5)CO)O)O)O)C

> <PUBCHEM_OPENEYE_ISO_SMILES>
CC(=CCC[C@@](C)([C@H]1CC[C@@]2([C@@H]1[C@@H](C[C@H]3[C@]2(CC[C@@H]4[C@@]3(CC[C@@H](C4(C)C)O)C)C)O)C)O[C@H]5[C@@H]([C@H]([C@@H]([C@H](O5)CO)O)O)O)C

> <PUBCHEM_CACTVS_TPSA>
140

> <PUBCHEM_MONOISOTOPIC_WEIGHT>
622.444

> <PUBCHEM_TOTAL_CHARGE>
0

> <PUBCHEM_HEAVY_ATOM_COUNT>
44

> <PUBCHEM_ATOM_DEF_STEREO_COUNT>
15

> <PUBCHEM_ATOM_UDEF_STEREO_COUNT>
0

> <PUBCHEM_BOND_DEF_STEREO_COUNT>
0

> <PUBCHEM_BOND_UDEF_STEREO_COUNT>
0

> <PUBCHEM_ISOTOPIC_ATOM_COUNT>
0

> <PUBCHEM_COMPONENT_COUNT>
1

> <PUBCHEM_CACTVS_TAUTO_COUNT>
1

> <PUBCHEM_COORDINATE_TYPE>
1
5
255

> <PUBCHEM_BONDANNOTATIONS>
18  1  5
10  25  6
11  45  6
12  26  5
13  46  5
14  47  6
16  50  6
27  2  6
35  2  5
28  3  5
39  42  5
36  5  6
38  6  5
40  7  6
9  24  5

$$$$
