71413934
  -OEChem-11191801352D

 26 26  0     0  0  0  0  0  0999 V2000
    2.0000   -0.1550    0.0000 Cl  0  0  0  0  0  0  0  0  0  0  0  0
    2.0000    1.8450    0.0000 Cl  0  0  0  0  0  0  0  0  0  0  0  0
    3.7320    2.8450    0.0000 N   0  0  0  0  0  0  0  0  0  0  0  0
    4.5981   -1.6550    0.0000 C   0  0  0  0  0  0  0  0  0  0  0  0
    3.7320   -1.1550    0.0000 C   0  0  0  0  0  0  0  0  0  0  0  0
    4.5981   -2.6550    0.0000 C   0  0  0  0  0  0  0  0  0  0  0  0
    3.7320   -0.1550    0.0000 C   0  0  0  0  0  0  0  0  0  0  0  0
    2.8660    0.3450    0.0000 C   0  0  0  0  0  0  0  0  0  0  0  0
    4.5981    0.3450    0.0000 C   0  0  0  0  0  0  0  0  0  0  0  0
    5.4641   -3.1550    0.0000 C   0  0  0  0  0  0  0  0  0  0  0  0
    2.8660    1.3450    0.0000 C   0  0  0  0  0  0  0  0  0  0  0  0
    4.5981    1.3450    0.0000 C   0  0  0  0  0  0  0  0  0  0  0  0
    3.7320    1.8450    0.0000 C   0  0  0  0  0  0  0  0  0  0  0  0
    5.2087   -1.7627    0.0000 H   0  0  0  0  0  0  0  0  0  0  0  0
    4.8101   -1.0724    0.0000 H   0  0  0  0  0  0  0  0  0  0  0  0
    3.1215   -1.0473    0.0000 H   0  0  0  0  0  0  0  0  0  0  0  0
    3.5200   -1.7376    0.0000 H   0  0  0  0  0  0  0  0  0  0  0  0
    3.9875   -2.5473    0.0000 H   0  0  0  0  0  0  0  0  0  0  0  0
    4.3860   -3.2376    0.0000 H   0  0  0  0  0  0  0  0  0  0  0  0
    5.1350    0.0350    0.0000 H   0  0  0  0  0  0  0  0  0  0  0  0
    5.1541   -3.6919    0.0000 H   0  0  0  0  0  0  0  0  0  0  0  0
    6.0010   -3.4650    0.0000 H   0  0  0  0  0  0  0  0  0  0  0  0
    5.7741   -2.6181    0.0000 H   0  0  0  0  0  0  0  0  0  0  0  0
    5.1350    1.6550    0.0000 H   0  0  0  0  0  0  0  0  0  0  0  0
    4.2690    3.1550    0.0000 H   0  0  0  0  0  0  0  0  0  0  0  0
    3.1951    3.1550    0.0000 H   0  0  0  0  0  0  0  0  0  0  0  0
  1  8  1  0  0  0  0
  2 11  1  0  0  0  0
  3 13  1  0  0  0  0
  3 25  1  0  0  0  0
  3 26  1  0  0  0  0
  4  5  1  0  0  0  0
  4  6  1  0  0  0  0
  4 14  1  0  0  0  0
  4 15  1  0  0  0  0
  5  7  1  0  0  0  0
  5 16  1  0  0  0  0
  5 17  1  0  0  0  0
  6 10  1  0  0  0  0
  6 18  1  0  0  0  0
  6 19  1  0  0  0  0
  7  8  2  0  0  0  0
  7  9  1  0  0  0  0
  8 11  1  0  0  0  0
  9 12  2  0  0  0  0
  9 20  1  0  0  0  0
 10 21  1  0  0  0  0
 10 22  1  0  0  0  0
 10 23  1  0  0  0  0
 11 13  2  0  0  0  0
 12 13  1  0  0  0  0
 12 24  1  0  0  0  0
M  END
> <PUBCHEM_COMPOUND_CID>
71413934

> <PUBCHEM_COMPOUND_CANONICALIZED>
1

> <PUBCHEM_CACTVS_COMPLEXITY>
152

> <PUBCHEM_CACTVS_HBOND_ACCEPTOR>
1

> <PUBCHEM_CACTVS_HBOND_DONOR>
1

> <PUBCHEM_CACTVS_ROTATABLE_BOND>
3

> <PUBCHEM_CACTVS_SUBSKEYS>
AAADccByAAAGAAAAAAAAAAAAAAAAAAAAAAAwAAAAAAAAAAABAAAAHAIQAAAADAqBGCAywIBAAACAAiRCQACCAAAgBgAIikAAZogIICKBk5GAIABgkAAIyAcQgIAOCAAAIAIBABQQAABABAIAKAAAAAAAAA==

> <PUBCHEM_IUPAC_OPENEYE_NAME>
4-butyl-2,3-dichloro-aniline

> <PUBCHEM_IUPAC_CAS_NAME>
4-butyl-2,3-dichloroaniline

> <PUBCHEM_IUPAC_NAME>
4-butyl-2,3-dichloroaniline

> <PUBCHEM_IUPAC_SYSTEMATIC_NAME>
4-butyl-2,3-bis(chloranyl)aniline

> <PUBCHEM_IUPAC_TRADITIONAL_NAME>
(4-butyl-2,3-dichloro-phenyl)amine

> <PUBCHEM_IUPAC_INCHI>
InChI=1S/C10H13Cl2N/c1-2-3-4-7-5-6-8(13)10(12)9(7)11/h5-6H,2-4,13H2,1H3

> <PUBCHEM_IUPAC_INCHIKEY>
NIIVWVLELJMYMA-UHFFFAOYSA-N

> <PUBCHEM_XLOGP3_AA>
4.4

> <PUBCHEM_EXACT_MASS>
217.043

> <PUBCHEM_MOLECULAR_FORMULA>
C10H13Cl2N

> <PUBCHEM_MOLECULAR_WEIGHT>
218.121

> <PUBCHEM_OPENEYE_CAN_SMILES>
CCCCC1=C(C(=C(C=C1)N)Cl)Cl

> <PUBCHEM_OPENEYE_ISO_SMILES>
CCCCC1=C(C(=C(C=C1)N)Cl)Cl

> <PUBCHEM_CACTVS_TPSA>
26

> <PUBCHEM_MONOISOTOPIC_WEIGHT>
217.043

> <PUBCHEM_TOTAL_CHARGE>
0

> <PUBCHEM_HEAVY_ATOM_COUNT>
13

> <PUBCHEM_ATOM_DEF_STEREO_COUNT>
0

> <PUBCHEM_ATOM_UDEF_STEREO_COUNT>
0

> <PUBCHEM_BOND_DEF_STEREO_COUNT>
0

> <PUBCHEM_BOND_UDEF_STEREO_COUNT>
0

> <PUBCHEM_ISOTOPIC_ATOM_COUNT>
0

> <PUBCHEM_COMPONENT_COUNT>
1

> <PUBCHEM_CACTVS_TAUTO_COUNT>
1

> <PUBCHEM_COORDINATE_TYPE>
1
5
255

> <PUBCHEM_BONDANNOTATIONS>
11  13  8
12  13  8
7  8  8
7  9  8
8  11  8
9  12  8

$$$$
