395120
  -OEChem-11191801332D

 67 71  0     1  0  0  0  0  0999 V2000
    8.2224   -1.1912    0.0000 P   0  0  0  0  0  0  0  0  0  0  0  0
    4.8532    1.2567    0.0000 P   0  0  0  0  0  0  0  0  0  0  0  0
    8.1654    0.8966    0.0000 O   0  0  0  0  0  0  0  0  0  0  0  0
    6.8564    1.8477    0.0000 O   0  0  0  0  0  0  0  0  0  0  0  0
    7.3564    0.3088    0.0000 C   0  0  2  0  0  0  0  0  0  0  0  0
    6.5474    0.8966    0.0000 C   0  0  2  0  0  0  0  0  0  0  0  0
    7.8564    1.8477    0.0000 C   0  0  0  0  0  0  0  0  0  0  0  0
    7.3564   -0.6912    0.0000 C   0  0  0  0  0  0  0  0  0  0  0  0
    5.5963    0.5876    0.0000 C   0  0  0  0  0  0  0  0  0  0  0  0
    7.8564    2.8477    0.0000 C   0  0  0  0  0  0  0  0  0  0  0  0
    8.8074    2.1567    0.0000 C   0  0  0  0  0  0  0  0  0  0  0  0
    8.2224   -2.1912    0.0000 C   0  0  0  0  0  0  0  0  0  0  0  0
    9.0884   -0.6912    0.0000 C   0  0  0  0  0  0  0  0  0  0  0  0
    3.9021    0.9477    0.0000 C   0  0  0  0  0  0  0  0  0  0  0  0
    5.0611    2.2349    0.0000 C   0  0  0  0  0  0  0  0  0  0  0  0
    9.0884    0.3088    0.0000 C   0  0  0  0  0  0  0  0  0  0  0  0
    7.3564   -2.6912    0.0000 C   0  0  0  0  0  0  0  0  0  0  0  0
    9.9545   -1.1912    0.0000 C   0  0  0  0  0  0  0  0  0  0  0  0
    9.0884   -2.6912    0.0000 C   0  0  0  0  0  0  0  0  0  0  0  0
    6.0121    2.5439    0.0000 C   0  0  0  0  0  0  0  0  0  0  0  0
    3.1590    1.6168    0.0000 C   0  0  0  0  0  0  0  0  0  0  0  0
    4.3179    2.9040    0.0000 C   0  0  0  0  0  0  0  0  0  0  0  0
    3.6942   -0.0304    0.0000 C   0  0  0  0  0  0  0  0  0  0  0  0
    7.3564   -3.6912    0.0000 C   0  0  0  0  0  0  0  0  0  0  0  0
    9.9545    0.8088    0.0000 C   0  0  0  0  0  0  0  0  0  0  0  0
    9.0884   -3.6912    0.0000 C   0  0  0  0  0  0  0  0  0  0  0  0
   10.8205   -0.6912    0.0000 C   0  0  0  0  0  0  0  0  0  0  0  0
    2.2079    1.3078    0.0000 C   0  0  0  0  0  0  0  0  0  0  0  0
    6.2200    3.5220    0.0000 C   0  0  0  0  0  0  0  0  0  0  0  0
    2.7431   -0.3395    0.0000 C   0  0  0  0  0  0  0  0  0  0  0  0
    4.5258    3.8822    0.0000 C   0  0  0  0  0  0  0  0  0  0  0  0
    8.2224   -4.1912    0.0000 C   0  0  0  0  0  0  0  0  0  0  0  0
   10.8205    0.3088    0.0000 C   0  0  0  0  0  0  0  0  0  0  0  0
    2.0000    0.3297    0.0000 C   0  0  0  0  0  0  0  0  0  0  0  0
    5.4769    4.1912    0.0000 C   0  0  0  0  0  0  0  0  0  0  0  0
    7.9088    0.0274    0.0000 H   0  0  0  0  0  0  0  0  0  0  0  0
    6.1090    1.3350    0.0000 H   0  0  0  0  0  0  0  0  0  0  0  0
    6.7458   -0.5835    0.0000 H   0  0  0  0  0  0  0  0  0  0  0  0
    7.1443   -1.2738    0.0000 H   0  0  0  0  0  0  0  0  0  0  0  0
    5.1078    0.2059    0.0000 H   0  0  0  0  0  0  0  0  0  0  0  0
    5.8874    0.0402    0.0000 H   0  0  0  0  0  0  0  0  0  0  0  0
    8.9990    1.5670    0.0000 H   0  0  0  0  0  0  0  0  0  0  0  0
    9.3971    2.3483    0.0000 H   0  0  0  0  0  0  0  0  0  0  0  0
    8.6158    2.7463    0.0000 H   0  0  0  0  0  0  0  0  0  0  0  0
    8.4764    2.8477    0.0000 H   0  0  0  0  0  0  0  0  0  0  0  0
    7.8564    3.4677    0.0000 H   0  0  0  0  0  0  0  0  0  0  0  0
    7.2364    2.8477    0.0000 H   0  0  0  0  0  0  0  0  0  0  0  0
    8.5515    0.6188    0.0000 H   0  0  0  0  0  0  0  0  0  0  0  0
    6.8194   -2.3812    0.0000 H   0  0  0  0  0  0  0  0  0  0  0  0
    9.9545   -1.8112    0.0000 H   0  0  0  0  0  0  0  0  0  0  0  0
    9.6254   -2.3812    0.0000 H   0  0  0  0  0  0  0  0  0  0  0  0
    6.4729    2.1290    0.0000 H   0  0  0  0  0  0  0  0  0  0  0  0
    3.2879    2.2233    0.0000 H   0  0  0  0  0  0  0  0  0  0  0  0
    3.7283    2.7124    0.0000 H   0  0  0  0  0  0  0  0  0  0  0  0
    4.1550   -0.4453    0.0000 H   0  0  0  0  0  0  0  0  0  0  0  0
    6.8194   -4.0012    0.0000 H   0  0  0  0  0  0  0  0  0  0  0  0
    9.9545    1.4288    0.0000 H   0  0  0  0  0  0  0  0  0  0  0  0
    9.6254   -4.0012    0.0000 H   0  0  0  0  0  0  0  0  0  0  0  0
   11.3574   -1.0012    0.0000 H   0  0  0  0  0  0  0  0  0  0  0  0
    1.7472    1.7227    0.0000 H   0  0  0  0  0  0  0  0  0  0  0  0
    6.8097    3.7136    0.0000 H   0  0  0  0  0  0  0  0  0  0  0  0
    2.6142   -0.9459    0.0000 H   0  0  0  0  0  0  0  0  0  0  0  0
    4.0651    4.2970    0.0000 H   0  0  0  0  0  0  0  0  0  0  0  0
    8.2224   -4.8112    0.0000 H   0  0  0  0  0  0  0  0  0  0  0  0
   11.3574    0.6188    0.0000 H   0  0  0  0  0  0  0  0  0  0  0  0
    1.4103    0.1381    0.0000 H   0  0  0  0  0  0  0  0  0  0  0  0
    5.6058    4.7976    0.0000 H   0  0  0  0  0  0  0  0  0  0  0  0
  1  8  1  0  0  0  0
  1 12  1  0  0  0  0
  1 13  1  0  0  0  0
  2  9  1  0  0  0  0
  2 14  1  0  0  0  0
  2 15  1  0  0  0  0
  3  5  1  0  0  0  0
  3  7  1  0  0  0  0
  4  6  1  0  0  0  0
  4  7  1  0  0  0  0
  5  6  1  0  0  0  0
  5  8  1  1  0  0  0
  5 36  1  0  0  0  0
  6  9  1  6  0  0  0
  6 37  1  0  0  0  0
  7 10  1  0  0  0  0
  7 11  1  0  0  0  0
  8 38  1  0  0  0  0
  8 39  1  0  0  0  0
  9 40  1  0  0  0  0
  9 41  1  0  0  0  0
 10 45  1  0  0  0  0
 10 46  1  0  0  0  0
 10 47  1  0  0  0  0
 11 42  1  0  0  0  0
 11 43  1  0  0  0  0
 11 44  1  0  0  0  0
 12 17  2  0  0  0  0
 12 19  1  0  0  0  0
 13 16  2  0  0  0  0
 13 18  1  0  0  0  0
 14 21  2  0  0  0  0
 14 23  1  0  0  0  0
 15 20  2  0  0  0  0
 15 22  1  0  0  0  0
 16 25  1  0  0  0  0
 16 48  1  0  0  0  0
 17 24  1  0  0  0  0
 17 49  1  0  0  0  0
 18 27  2  0  0  0  0
 18 50  1  0  0  0  0
 19 26  2  0  0  0  0
 19 51  1  0  0  0  0
 20 29  1  0  0  0  0
 20 52  1  0  0  0  0
 21 28  1  0  0  0  0
 21 53  1  0  0  0  0
 22 31  2  0  0  0  0
 22 54  1  0  0  0  0
 23 30  2  0  0  0  0
 23 55  1  0  0  0  0
 24 32  2  0  0  0  0
 24 56  1  0  0  0  0
 25 33  2  0  0  0  0
 25 57  1  0  0  0  0
 26 32  1  0  0  0  0
 26 58  1  0  0  0  0
 27 33  1  0  0  0  0
 27 59  1  0  0  0  0
 28 34  2  0  0  0  0
 28 60  1  0  0  0  0
 29 35  2  0  0  0  0
 29 61  1  0  0  0  0
 30 34  1  0  0  0  0
 30 62  1  0  0  0  0
 31 35  1  0  0  0  0
 31 63  1  0  0  0  0
 32 64  1  0  0  0  0
 33 65  1  0  0  0  0
 34 66  1  0  0  0  0
 35 67  1  0  0  0  0
M  END
> <PUBCHEM_COMPOUND_CID>
395120

> <PUBCHEM_COMPOUND_CANONICALIZED>
1

> <PUBCHEM_CACTVS_COMPLEXITY>
528

> <PUBCHEM_CACTVS_HBOND_ACCEPTOR>
2

> <PUBCHEM_CACTVS_HBOND_DONOR>
0

> <PUBCHEM_CACTVS_ROTATABLE_BOND>
8

> <PUBCHEM_CACTVS_SUBSKEYS>
AAADcfB4MAMAAAAAAAAAAAAAAAAAASAAAAAwYMGAAAAAAAABVAAAGggAAAAACBSokAIyCIAABCCAACBCAAACAAAgAAAIiAAAAIgZICKAERCiIAAggAAOiAcAAAAAAAAAAAAAAAAAAAAAAAAAAAAAAAAAAA==

> <PUBCHEM_IUPAC_OPENEYE_NAME>
[(4R,5R)-5-(diphenylphosphanylmethyl)-2,2-dimethyl-1,3-dioxolan-4-yl]methyl-diphenyl-phosphane

> <PUBCHEM_IUPAC_CAS_NAME>
[(4R,5R)-5-(diphenylphosphinomethyl)-2,2-dimethyl-1,3-dioxolan-4-yl]methyl-diphenylphosphine

> <PUBCHEM_IUPAC_NAME>
[(4R,5R)-5-(diphenylphosphanylmethyl)-2,2-dimethyl-1,3-dioxolan-4-yl]methyl-diphenylphosphane

> <PUBCHEM_IUPAC_SYSTEMATIC_NAME>
[(4R,5R)-5-(diphenylphosphanylmethyl)-2,2-dimethyl-1,3-dioxolan-4-yl]methyl-diphenyl-phosphane

> <PUBCHEM_IUPAC_TRADITIONAL_NAME>
[(4R,5R)-5-(diphenylphosphinomethyl)-2,2-dimethyl-1,3-dioxolan-4-yl]methyl-diphenyl-phosphine

> <PUBCHEM_IUPAC_INCHI>
InChI=1S/C31H32O2P2/c1-31(2)32-29(23-34(25-15-7-3-8-16-25)26-17-9-4-10-18-26)30(33-31)24-35(27-19-11-5-12-20-27)28-21-13-6-14-22-28/h3-22,29-30H,23-24H2,1-2H3/t29-,30-/m0/s1

> <PUBCHEM_IUPAC_INCHIKEY>
VCHDBLPQYJAQSQ-KYJUHHDHSA-N

> <PUBCHEM_XLOGP3_AA>
6.2

> <PUBCHEM_EXACT_MASS>
498.188

> <PUBCHEM_MOLECULAR_FORMULA>
C31H32O2P2

> <PUBCHEM_MOLECULAR_WEIGHT>
498.543

> <PUBCHEM_OPENEYE_CAN_SMILES>
CC1(OC(C(O1)CP(C2=CC=CC=C2)C3=CC=CC=C3)CP(C4=CC=CC=C4)C5=CC=CC=C5)C

> <PUBCHEM_OPENEYE_ISO_SMILES>
CC1(O[C@H]([C@@H](O1)CP(C2=CC=CC=C2)C3=CC=CC=C3)CP(C4=CC=CC=C4)C5=CC=CC=C5)C

> <PUBCHEM_CACTVS_TPSA>
18.5

> <PUBCHEM_MONOISOTOPIC_WEIGHT>
498.188

> <PUBCHEM_TOTAL_CHARGE>
0

> <PUBCHEM_HEAVY_ATOM_COUNT>
35

> <PUBCHEM_ATOM_DEF_STEREO_COUNT>
2

> <PUBCHEM_ATOM_UDEF_STEREO_COUNT>
0

> <PUBCHEM_BOND_DEF_STEREO_COUNT>
0

> <PUBCHEM_BOND_UDEF_STEREO_COUNT>
0

> <PUBCHEM_ISOTOPIC_ATOM_COUNT>
0

> <PUBCHEM_COMPONENT_COUNT>
1

> <PUBCHEM_CACTVS_TAUTO_COUNT>
1

> <PUBCHEM_COORDINATE_TYPE>
1
5
255

> <PUBCHEM_BONDANNOTATIONS>
12  17  8
12  19  8
13  16  8
13  18  8
14  21  8
14  23  8
15  20  8
15  22  8
16  25  8
17  24  8
18  27  8
19  26  8
20  29  8
21  28  8
22  31  8
23  30  8
24  32  8
25  33  8
26  32  8
27  33  8
28  34  8
29  35  8
30  34  8
31  35  8
5  8  5
6  9  6

$$$$
