45489598
  -OEChem-12071820562D

 70 68  0     0  0  0  0  0  0999 V2000
    1.8360    2.1200    0.0000 O   0  0  0  0  0  0  0  0  0  0  0  0
    5.3001    4.1200    0.0000 O   0  0  0  0  0  0  0  0  0  0  0  0
    2.7020    3.6200    0.0000 O   0  0  0  0  0  0  0  0  0  0  0  0
    3.5680    4.1200    0.0000 O   0  0  0  0  0  0  0  0  0  0  0  0
    3.1350    7.2769    0.0000 C   0  0  0  0  0  0  0  0  0  0  0  0
    4.0010    7.7769    0.0000 C   0  0  0  0  0  0  0  0  0  0  0  0
    3.1350   10.8508    0.0000 C   0  0  0  0  0  0  0  0  0  0  0  0
    4.0010   11.3508    0.0000 C   0  0  0  0  0  0  0  0  0  0  0  0
    4.8671   10.8508    0.0000 C   0  0  0  0  0  0  0  0  0  0  0  0
    2.2690   11.3508    0.0000 C   0  0  0  0  0  0  0  0  0  0  0  0
    4.8671    7.2769    0.0000 C   0  0  0  0  0  0  0  0  0  0  0  0
    2.2690    7.7769    0.0000 C   0  0  0  0  0  0  0  0  0  0  0  0
    5.7331   11.3508    0.0000 C   0  0  0  0  0  0  0  0  0  0  0  0
    1.4030   10.8508    0.0000 C   0  0  0  0  0  0  0  0  0  0  0  0
    5.7331    7.7769    0.0000 C   0  0  0  0  0  0  0  0  0  0  0  0
    1.4030    7.2769    0.0000 C   0  0  0  0  0  0  0  0  0  0  0  0
    0.5369    7.7769    0.0000 C   0  0  0  0  0  0  0  0  0  0  0  0
    6.5991    7.2769    0.0000 C   0  0  0  0  0  0  0  0  0  0  0  0
    0.5369   11.3508    0.0000 C   0  0  0  0  0  0  0  0  0  0  0  0
    6.5991   10.8508    0.0000 C   0  0  0  0  0  0  0  0  0  0  0  0
    4.4340    2.6200    0.0000 C   0  0  0  0  0  0  0  0  0  0  0  0
    3.5680    2.1200    0.0000 C   0  0  0  0  0  0  0  0  0  0  0  0
    3.5680    1.1200    0.0000 C   0  0  0  0  0  0  0  0  0  0  0  0
    5.3001    2.1200    0.0000 C   0  0  0  0  0  0  0  0  0  0  0  0
    4.4340    0.6200    0.0000 C   0  0  0  0  0  0  0  0  0  0  0  0
    5.3001    1.1200    0.0000 C   0  0  0  0  0  0  0  0  0  0  0  0
    4.4340    3.6200    0.0000 C   0  0  0  0  0  0  0  0  0  0  0  0
    2.7020    2.6200    0.0000 C   0  0  0  0  0  0  0  0  0  0  0  0
    2.7365    6.8020    0.0000 H   0  0  0  0  0  0  0  0  0  0  0  0
    3.5335    6.8020    0.0000 H   0  0  0  0  0  0  0  0  0  0  0  0
    4.3996    8.2519    0.0000 H   0  0  0  0  0  0  0  0  0  0  0  0
    3.6025    8.2519    0.0000 H   0  0  0  0  0  0  0  0  0  0  0  0
    2.7365   10.3759    0.0000 H   0  0  0  0  0  0  0  0  0  0  0  0
    3.5335   10.3759    0.0000 H   0  0  0  0  0  0  0  0  0  0  0  0
    4.3996   11.8258    0.0000 H   0  0  0  0  0  0  0  0  0  0  0  0
    3.6025   11.8258    0.0000 H   0  0  0  0  0  0  0  0  0  0  0  0
    2.6675   11.8258    0.0000 H   0  0  0  0  0  0  0  0  0  0  0  0
    1.8705   11.8258    0.0000 H   0  0  0  0  0  0  0  0  0  0  0  0
    4.4685   10.3759    0.0000 H   0  0  0  0  0  0  0  0  0  0  0  0
    5.2656   10.3759    0.0000 H   0  0  0  0  0  0  0  0  0  0  0  0
    4.4685    6.8020    0.0000 H   0  0  0  0  0  0  0  0  0  0  0  0
    5.2656    6.8020    0.0000 H   0  0  0  0  0  0  0  0  0  0  0  0
    2.6675    8.2519    0.0000 H   0  0  0  0  0  0  0  0  0  0  0  0
    1.8705    8.2519    0.0000 H   0  0  0  0  0  0  0  0  0  0  0  0
    6.1316   11.8258    0.0000 H   0  0  0  0  0  0  0  0  0  0  0  0
    5.3346   11.8258    0.0000 H   0  0  0  0  0  0  0  0  0  0  0  0
    1.0044   10.3759    0.0000 H   0  0  0  0  0  0  0  0  0  0  0  0
    1.8015   10.3759    0.0000 H   0  0  0  0  0  0  0  0  0  0  0  0
    6.1316    8.2519    0.0000 H   0  0  0  0  0  0  0  0  0  0  0  0
    5.3346    8.2519    0.0000 H   0  0  0  0  0  0  0  0  0  0  0  0
    1.0044    6.8020    0.0000 H   0  0  0  0  0  0  0  0  0  0  0  0
    1.8015    6.8020    0.0000 H   0  0  0  0  0  0  0  0  0  0  0  0
    6.2891   10.3139    0.0000 H   0  0  0  0  0  0  0  0  0  0  0  0
    7.1360   10.5408    0.0000 H   0  0  0  0  0  0  0  0  0  0  0  0
    0.8469    8.3139    0.0000 H   0  0  0  0  0  0  0  0  0  0  0  0
    0.0000    8.0869    0.0000 H   0  0  0  0  0  0  0  0  0  0  0  0
    0.2269    7.2400    0.0000 H   0  0  0  0  0  0  0  0  0  0  0  0
    6.2891    6.7400    0.0000 H   0  0  0  0  0  0  0  0  0  0  0  0
    7.1360    6.9669    0.0000 H   0  0  0  0  0  0  0  0  0  0  0  0
    6.9091    7.8139    0.0000 H   0  0  0  0  0  0  0  0  0  0  0  0
    0.8469   11.8877    0.0000 H   0  0  0  0  0  0  0  0  0  0  0  0
    0.0000   11.6608    0.0000 H   0  0  0  0  0  0  0  0  0  0  0  0
    0.2269   10.8139    0.0000 H   0  0  0  0  0  0  0  0  0  0  0  0
    6.9091   11.3877    0.0000 H   0  0  0  0  0  0  0  0  0  0  0  0
    3.0311    0.8100    0.0000 H   0  0  0  0  0  0  0  0  0  0  0  0
    5.8370    2.4300    0.0000 H   0  0  0  0  0  0  0  0  0  0  0  0
    4.4340    0.0000    0.0000 H   0  0  0  0  0  0  0  0  0  0  0  0
    5.8370    0.8100    0.0000 H   0  0  0  0  0  0  0  0  0  0  0  0
    1.2990    2.4300    0.0000 H   0  0  0  0  0  0  0  0  0  0  0  0
    5.3001    4.7400    0.0000 H   0  0  0  0  0  0  0  0  0  0  0  0
  1 28  1  0  0  0  0
  1 69  1  0  0  0  0
  2 27  1  0  0  0  0
  2 70  1  0  0  0  0
  3 28  2  0  0  0  0
  4 27  2  0  0  0  0
  5  6  1  0  0  0  0
  5 12  1  0  0  0  0
  5 29  1  0  0  0  0
  5 30  1  0  0  0  0
  6 11  1  0  0  0  0
  6 31  1  0  0  0  0
  6 32  1  0  0  0  0
  7  8  1  0  0  0  0
  7 10  1  0  0  0  0
  7 33  1  0  0  0  0
  7 34  1  0  0  0  0
  8  9  1  0  0  0  0
  8 35  1  0  0  0  0
  8 36  1  0  0  0  0
  9 13  1  0  0  0  0
  9 39  1  0  0  0  0
  9 40  1  0  0  0  0
 10 14  1  0  0  0  0
 10 37  1  0  0  0  0
 10 38  1  0  0  0  0
 11 15  1  0  0  0  0
 11 41  1  0  0  0  0
 11 42  1  0  0  0  0
 12 16  1  0  0  0  0
 12 43  1  0  0  0  0
 12 44  1  0  0  0  0
 13 20  1  0  0  0  0
 13 45  1  0  0  0  0
 13 46  1  0  0  0  0
 14 19  1  0  0  0  0
 14 47  1  0  0  0  0
 14 48  1  0  0  0  0
 15 18  1  0  0  0  0
 15 49  1  0  0  0  0
 15 50  1  0  0  0  0
 16 17  1  0  0  0  0
 16 51  1  0  0  0  0
 16 52  1  0  0  0  0
 17 55  1  0  0  0  0
 17 56  1  0  0  0  0
 17 57  1  0  0  0  0
 18 58  1  0  0  0  0
 18 59  1  0  0  0  0
 18 60  1  0  0  0  0
 19 61  1  0  0  0  0
 19 62  1  0  0  0  0
 19 63  1  0  0  0  0
 20 53  1  0  0  0  0
 20 54  1  0  0  0  0
 20 64  1  0  0  0  0
 21 22  1  0  0  0  0
 21 24  2  0  0  0  0
 21 27  1  0  0  0  0
 22 23  2  0  0  0  0
 22 28  1  0  0  0  0
 23 25  1  0  0  0  0
 23 65  1  0  0  0  0
 24 26  1  0  0  0  0
 24 66  1  0  0  0  0
 25 26  2  0  0  0  0
 25 67  1  0  0  0  0
 26 68  1  0  0  0  0
M  END
> <PUBCHEM_COMPOUND_CID>
45489598

> <PUBCHEM_COMPOUND_CANONICALIZED>
1

> <PUBCHEM_CACTVS_COMPLEXITY>
202

> <PUBCHEM_CACTVS_HBOND_ACCEPTOR>
4

> <PUBCHEM_CACTVS_HBOND_DONOR>
2

> <PUBCHEM_CACTVS_ROTATABLE_BOND>
12

> <PUBCHEM_CACTVS_SUBSKEYS>
AAADcfB4OAAAAAAAAAAAAAAAAAAAAAAAAAAwAAAAAAAAAAABAAAAGgAACAAADACAmAAyCIAAAgCIAiDSCAACAAAkAAAIiAEACMgIJjKAFRCAcQAkwAEImYfLyKCOgAAAAAAQAAAAAAAAACAAAAAAAAAAAA==

> <PUBCHEM_IUPAC_OPENEYE_NAME>
octane;phthalic acid

> <PUBCHEM_IUPAC_CAS_NAME>
octane;phthalic acid

> <PUBCHEM_IUPAC_NAME>
octane;phthalic acid

> <PUBCHEM_IUPAC_SYSTEMATIC_NAME>
octane;phthalic acid

> <PUBCHEM_IUPAC_TRADITIONAL_NAME>
n-octane;phthalic acid

> <PUBCHEM_IUPAC_INCHI>
InChI=1S/C8H6O4.2C8H18/c9-7(10)5-3-1-2-4-6(5)8(11)12;2*1-3-5-7-8-6-4-2/h1-4H,(H,9,10)(H,11,12);2*3-8H2,1-2H3

> <PUBCHEM_IUPAC_INCHIKEY>
UOMCCJKPTKZUNH-UHFFFAOYSA-N

> <PUBCHEM_EXACT_MASS>
394.308

> <PUBCHEM_MOLECULAR_FORMULA>
C24H42O4

> <PUBCHEM_MOLECULAR_WEIGHT>
394.596

> <PUBCHEM_OPENEYE_CAN_SMILES>
CCCCCCCC.CCCCCCCC.C1=CC=C(C(=C1)C(=O)O)C(=O)O

> <PUBCHEM_OPENEYE_ISO_SMILES>
CCCCCCCC.CCCCCCCC.C1=CC=C(C(=C1)C(=O)O)C(=O)O

> <PUBCHEM_CACTVS_TPSA>
74.6

> <PUBCHEM_MONOISOTOPIC_WEIGHT>
394.308

> <PUBCHEM_TOTAL_CHARGE>
0

> <PUBCHEM_HEAVY_ATOM_COUNT>
28

> <PUBCHEM_ATOM_DEF_STEREO_COUNT>
0

> <PUBCHEM_ATOM_UDEF_STEREO_COUNT>
0

> <PUBCHEM_BOND_DEF_STEREO_COUNT>
0

> <PUBCHEM_BOND_UDEF_STEREO_COUNT>
0

> <PUBCHEM_ISOTOPIC_ATOM_COUNT>
0

> <PUBCHEM_COMPONENT_COUNT>
3

> <PUBCHEM_CACTVS_TAUTO_COUNT>
1

> <PUBCHEM_COORDINATE_TYPE>
1
5
255

> <PUBCHEM_BONDANNOTATIONS>
21  22  8
21  24  8
22  23  8
23  25  8
24  26  8
25  26  8

$$$$
