220401
  -OEChem-11191820433D

 52 54  0     1  0  0  0  0  0999 V2000
    0.8889   -2.0985    0.6392 O   0  0  0  0  0  0  0  0  0  0  0  0
    3.6225   -1.9669    0.5543 O   0  0  0  0  0  0  0  0  0  0  0  0
    4.8761    0.2144   -0.5921 O   0  0  0  0  0  0  0  0  0  0  0  0
   -5.0151   -1.5099   -0.9779 O   0  0  0  0  0  0  0  0  0  0  0  0
   -4.4905   -0.5980    1.5620 O   0  0  0  0  0  0  0  0  0  0  0  0
    0.1171    2.2088    1.7941 N   0  0  0  0  0  0  0  0  0  0  0  0
   -0.8429    2.3355    0.6865 C   0  0  1  0  0  0  0  0  0  0  0  0
   -0.2148    3.0955   -0.5093 C   0  0  0  0  0  0  0  0  0  0  0  0
    0.5476    2.2968   -1.5747 C   0  0  0  0  0  0  0  0  0  0  0  0
   -1.5376    1.0078    0.3451 C   0  0  0  0  0  0  0  0  0  0  0  0
    1.3626    1.1564   -1.0275 C   0  0  0  0  0  0  0  0  0  0  0  0
    0.7177    0.0402   -0.4552 C   0  0  0  0  0  0  0  0  0  0  0  0
   -0.7714   -0.0038   -0.3987 C   0  0  0  0  0  0  0  0  0  0  0  0
    1.4874   -1.0028    0.0836 C   0  0  0  0  0  0  0  0  0  0  0  0
    2.7624    1.2009   -1.0638 C   0  0  0  0  0  0  0  0  0  0  0  0
   -2.7870    0.8324    0.8152 C   0  0  0  0  0  0  0  0  0  0  0  0
   -1.3125   -0.9740   -1.1608 C   0  0  0  0  0  0  0  0  0  0  0  0
    2.8801   -0.9450    0.0397 C   0  0  0  0  0  0  0  0  0  0  0  0
    3.5161    0.1534   -0.5345 C   0  0  0  0  0  0  0  0  0  0  0  0
   -0.5552    1.7432    2.9922 C   0  0  0  0  0  0  0  0  0  0  0  0
   -3.6979   -0.3261    0.6621 C   0  0  0  0  0  0  0  0  0  0  0  0
   -2.6989   -1.2635   -1.4193 C   0  0  0  0  0  0  0  0  0  0  0  0
   -3.7577   -1.0438   -0.6316 C   0  0  0  0  0  0  0  0  0  0  0  0
    0.5981   -2.0374    2.0325 C   0  0  0  0  0  0  0  0  0  0  0  0
    4.5215   -1.6440    1.6123 C   0  0  0  0  0  0  0  0  0  0  0  0
    5.5003   -0.3349   -1.7506 C   0  0  0  0  0  0  0  0  0  0  0  0
   -5.7168   -0.5368   -1.7228 C   0  0  0  0  0  0  0  0  0  0  0  0
   -1.6097    3.0398    1.0459 H   0  0  0  0  0  0  0  0  0  0  0  0
    0.4538    3.8772   -0.1216 H   0  0  0  0  0  0  0  0  0  0  0  0
   -1.0131    3.6456   -1.0272 H   0  0  0  0  0  0  0  0  0  0  0  0
   -0.1584    1.8999   -2.3163 H   0  0  0  0  0  0  0  0  0  0  0  0
    1.1872    2.9866   -2.1401 H   0  0  0  0  0  0  0  0  0  0  0  0
    0.5390    3.1182    1.9811 H   0  0  0  0  0  0  0  0  0  0  0  0
    3.2691    2.0574   -1.5026 H   0  0  0  0  0  0  0  0  0  0  0  0
   -3.2284    1.6132    1.4340 H   0  0  0  0  0  0  0  0  0  0  0  0
   -0.6549   -1.6391   -1.7236 H   0  0  0  0  0  0  0  0  0  0  0  0
   -1.4039    2.3779    3.2690 H   0  0  0  0  0  0  0  0  0  0  0  0
   -0.8816    0.7024    2.9201 H   0  0  0  0  0  0  0  0  0  0  0  0
    0.1536    1.7783    3.8269 H   0  0  0  0  0  0  0  0  0  0  0  0
   -2.8644   -1.8132   -2.3453 H   0  0  0  0  0  0  0  0  0  0  0  0
   -0.3717   -1.5575    2.1876 H   0  0  0  0  0  0  0  0  0  0  0  0
    1.3740   -1.5001    2.5882 H   0  0  0  0  0  0  0  0  0  0  0  0
    0.5421   -3.0603    2.4148 H   0  0  0  0  0  0  0  0  0  0  0  0
    5.5286   -1.4899    1.2150 H   0  0  0  0  0  0  0  0  0  0  0  0
    4.1964   -0.7648    2.1798 H   0  0  0  0  0  0  0  0  0  0  0  0
    4.5554   -2.4967    2.2968 H   0  0  0  0  0  0  0  0  0  0  0  0
    5.2643   -1.3993   -1.8485 H   0  0  0  0  0  0  0  0  0  0  0  0
    5.1836    0.2046   -2.6488 H   0  0  0  0  0  0  0  0  0  0  0  0
    6.5827   -0.2258   -1.6404 H   0  0  0  0  0  0  0  0  0  0  0  0
   -6.7043   -0.9399   -1.9666 H   0  0  0  0  0  0  0  0  0  0  0  0
   -5.8630    0.3818   -1.1436 H   0  0  0  0  0  0  0  0  0  0  0  0
   -5.2055   -0.3090   -2.6648 H   0  0  0  0  0  0  0  0  0  0  0  0
  1 14  1  0  0  0  0
  1 24  1  0  0  0  0
  2 18  1  0  0  0  0
  2 25  1  0  0  0  0
  3 19  1  0  0  0  0
  3 26  1  0  0  0  0
  4 23  1  0  0  0  0
  4 27  1  0  0  0  0
  5 21  2  0  0  0  0
  6  7  1  0  0  0  0
  6 20  1  0  0  0  0
  6 33  1  0  0  0  0
  7  8  1  0  0  0  0
  7 10  1  0  0  0  0
  7 28  1  0  0  0  0
  8  9  1  0  0  0  0
  8 29  1  0  0  0  0
  8 30  1  0  0  0  0
  9 11  1  0  0  0  0
  9 31  1  0  0  0  0
  9 32  1  0  0  0  0
 10 13  1  0  0  0  0
 10 16  2  0  0  0  0
 11 12  1  0  0  0  0
 11 15  2  0  0  0  0
 12 13  1  0  0  0  0
 12 14  2  0  0  0  0
 13 17  2  0  0  0  0
 14 18  1  0  0  0  0
 15 19  1  0  0  0  0
 15 34  1  0  0  0  0
 16 21  1  0  0  0  0
 16 35  1  0  0  0  0
 17 22  1  0  0  0  0
 17 36  1  0  0  0  0
 18 19  2  0  0  0  0
 20 37  1  0  0  0  0
 20 38  1  0  0  0  0
 20 39  1  0  0  0  0
 21 23  1  0  0  0  0
 22 23  2  0  0  0  0
 22 40  1  0  0  0  0
 24 41  1  0  0  0  0
 24 42  1  0  0  0  0
 24 43  1  0  0  0  0
 25 44  1  0  0  0  0
 25 45  1  0  0  0  0
 25 46  1  0  0  0  0
 26 47  1  0  0  0  0
 26 48  1  0  0  0  0
 26 49  1  0  0  0  0
 27 50  1  0  0  0  0
 27 51  1  0  0  0  0
 27 52  1  0  0  0  0
M  END
> <PUBCHEM_COMPOUND_CID>
220401

> <PUBCHEM_CONFORMER_RMSD>
0.8

> <PUBCHEM_CONFORMER_DIVERSEORDER>
1
12
16
9
6
17
11
2
8
10
15
4
7
14
13
3
5

> <PUBCHEM_MMFF94_PARTIAL_CHARGES>
31
1 -0.36
10 -0.14
11 -0.14
12 0.03
13 -0.03
14 0.08
15 -0.15
16 -0.14
17 -0.15
18 0.08
19 0.08
2 -0.36
20 0.27
21 0.54
22 -0.15
23 0.09
24 0.28
25 0.28
26 0.28
27 0.28
3 -0.36
33 0.36
34 0.15
35 0.15
36 0.15
4 -0.36
40 0.15
5 -0.57
6 -0.9
7 0.41
9 0.14

> <PUBCHEM_EFFECTIVE_ROTOR_COUNT>
5.6

> <PUBCHEM_PHARMACOPHORE_FEATURES>
10
1 1 acceptor
1 2 acceptor
1 3 acceptor
1 4 acceptor
1 5 acceptor
1 6 cation
1 6 donor
6 11 12 14 15 18 19 rings
7 10 13 16 17 21 22 23 rings
7 7 8 9 10 11 12 13 rings

> <PUBCHEM_HEAVY_ATOM_COUNT>
27

> <PUBCHEM_ATOM_DEF_STEREO_COUNT>
1

> <PUBCHEM_ATOM_UDEF_STEREO_COUNT>
0

> <PUBCHEM_BOND_DEF_STEREO_COUNT>
0

> <PUBCHEM_BOND_UDEF_STEREO_COUNT>
0

> <PUBCHEM_ISOTOPIC_ATOM_COUNT>
0

> <PUBCHEM_COMPONENT_COUNT>
1

> <PUBCHEM_CACTVS_TAUTO_COUNT>
1

> <PUBCHEM_CONFORMER_ID>
00035CF100000001

> <PUBCHEM_MMFF94_ENERGY>
134.3257

> <PUBCHEM_FEATURE_SELFOVERLAP>
50.778

> <PUBCHEM_SHAPE_FINGERPRINT>
11578080 2 18196905882153065273
12166972 35 18130500946713481677
12236239 1 18341899601303504991
12553582 1 18411702092703366518
12633257 1 13542465414487991279
12788726 201 18342179942651669602
13140716 1 17753885022840832236
13782708 43 15985110686731385526
13911987 19 17386586742300184430
13965767 371 17478649748125802593
14251757 17 17095245842983591419
14294032 229 17559690447801824065
14347332 77 18200038309687469262
14787075 74 18129384959222399568
14955137 171 17916325964036710891
15375462 189 18341904021094014065
16945 1 18336266867690761252
17349148 13 18261118456805591562
17492 54 18040438814967968830
17980427 23 15769765893182859385
1813 80 18411423912172235700
18222031 100 17561074839275606743
200 152 18334290964081542367
20600515 1 16773805847844284721
20691752 17 18337382863413822321
21033648 29 14908179742393662283
22112679 90 18131071554155767597
23402539 116 17560808714380253605
23419403 2 17842239736385552581
23557571 272 17418104191011430900
23559900 14 17604420921196606423
312423 11 17969790683626791806
3411729 13 17201342216726157609
34934 24 18190468160204915273
392239 28 17988920085367916600
404807 14 13989670693966837944
5895379 119 15696623093952991801
9981440 41 16831207187796612480

> <PUBCHEM_SHAPE_MULTIPOLES>
521.32
9.47
2.66
2.11
0.86
1.26
-1.14
-5.41
3.64
-0.39
-0.64
0.27
0.32
-1.75

> <PUBCHEM_SHAPE_SELFOVERLAP>
1114.832

> <PUBCHEM_SHAPE_VOLUME>
286.6

> <PUBCHEM_COORDINATE_TYPE>
2
5
10

$$$$
