92123
  -OEChem-11191820483D

 39 40  0     1  0  0  0  0  0999 V2000
    1.2687    0.5505   -0.3702 O   0  0  0  0  0  0  0  0  0  0  0  0
    5.0049   -1.1514   -0.2635 O   0  0  0  0  0  0  0  0  0  0  0  0
    0.2381   -1.5406   -0.4654 O   0  0  0  0  0  0  0  0  0  0  0  0
    4.6590    1.6080    0.5250 O   0  0  0  0  0  0  0  0  0  0  0  0
    2.6296   -2.7369    0.4611 O   0  0  0  0  0  0  0  0  0  0  0  0
    0.7784    3.2241    0.0394 O   0  0  0  0  0  0  0  0  0  0  0  0
   -5.4825    0.4786    1.3957 O   0  0  0  0  0  0  0  0  0  0  0  0
    3.7989   -0.6323    0.2992 C   0  0  1  0  0  0  0  0  0  0  0  0
    3.6651    0.8277   -0.1343 C   0  0  1  0  0  0  0  0  0  0  0  0
    2.6116   -1.4644   -0.1854 C   0  0  2  0  0  0  0  0  0  0  0  0
    2.2788    1.3734    0.2160 C   0  0  1  0  0  0  0  0  0  0  0  0
    1.2837   -0.7807    0.1400 C   0  0  1  0  0  0  0  0  0  0  0  0
    2.0802    2.7910   -0.3109 C   0  0  0  0  0  0  0  0  0  0  0  0
   -1.0368   -1.0773   -0.2887 C   0  0  0  0  0  0  0  0  0  0  0  0
   -1.8055   -0.7324   -1.3961 C   0  0  0  0  0  0  0  0  0  0  0  0
   -1.5551   -0.9544    0.9966 C   0  0  0  0  0  0  0  0  0  0  0  0
   -3.1055   -0.2601   -1.2162 C   0  0  0  0  0  0  0  0  0  0  0  0
   -2.8554   -0.4822    1.1765 C   0  0  0  0  0  0  0  0  0  0  0  0
   -3.6306   -0.1351    0.0700 C   0  0  0  0  0  0  0  0  0  0  0  0
   -4.9862    0.3568    0.2580 C   0  0  0  0  0  0  0  0  0  0  0  0
   -5.8395    0.7380   -0.9469 C   0  0  0  0  0  0  0  0  0  0  0  0
    3.9065   -0.7109    1.3880 H   0  0  0  0  0  0  0  0  0  0  0  0
    3.8490    0.9059   -1.2129 H   0  0  0  0  0  0  0  0  0  0  0  0
    2.6952   -1.6546   -1.2620 H   0  0  0  0  0  0  0  0  0  0  0  0
    2.1252    1.3916    1.3037 H   0  0  0  0  0  0  0  0  0  0  0  0
    1.1365   -0.7644    1.2279 H   0  0  0  0  0  0  0  0  0  0  0  0
    2.1619    2.8280   -1.4023 H   0  0  0  0  0  0  0  0  0  0  0  0
    2.8033    3.4887    0.1209 H   0  0  0  0  0  0  0  0  0  0  0  0
    5.7368   -0.5941    0.0520 H   0  0  0  0  0  0  0  0  0  0  0  0
    4.4994    1.5506    1.4826 H   0  0  0  0  0  0  0  0  0  0  0  0
    2.5579   -2.5895    1.4196 H   0  0  0  0  0  0  0  0  0  0  0  0
    0.1451    2.5927   -0.3429 H   0  0  0  0  0  0  0  0  0  0  0  0
   -1.3998   -0.8278   -2.3994 H   0  0  0  0  0  0  0  0  0  0  0  0
   -0.9733   -1.2369    1.8690 H   0  0  0  0  0  0  0  0  0  0  0  0
   -3.6737   -0.0012   -2.1041 H   0  0  0  0  0  0  0  0  0  0  0  0
   -3.2434   -0.3974    2.1881 H   0  0  0  0  0  0  0  0  0  0  0  0
   -5.9970   -0.1323   -1.5892 H   0  0  0  0  0  0  0  0  0  0  0  0
   -5.3709    1.5575   -1.4979 H   0  0  0  0  0  0  0  0  0  0  0  0
   -6.8184    1.0818   -0.5977 H   0  0  0  0  0  0  0  0  0  0  0  0
  1 11  1  0  0  0  0
  1 12  1  0  0  0  0
  2  8  1  0  0  0  0
  2 29  1  0  0  0  0
  3 12  1  0  0  0  0
  3 14  1  0  0  0  0
  4  9  1  0  0  0  0
  4 30  1  0  0  0  0
  5 10  1  0  0  0  0
  5 31  1  0  0  0  0
  6 13  1  0  0  0  0
  6 32  1  0  0  0  0
  7 20  2  0  0  0  0
  8  9  1  0  0  0  0
  8 10  1  0  0  0  0
  8 22  1  0  0  0  0
  9 11  1  0  0  0  0
  9 23  1  0  0  0  0
 10 12  1  0  0  0  0
 10 24  1  0  0  0  0
 11 13  1  0  0  0  0
 11 25  1  0  0  0  0
 12 26  1  0  0  0  0
 13 27  1  0  0  0  0
 13 28  1  0  0  0  0
 14 15  2  0  0  0  0
 14 16  1  0  0  0  0
 15 17  1  0  0  0  0
 15 33  1  0  0  0  0
 16 18  2  0  0  0  0
 16 34  1  0  0  0  0
 17 19  2  0  0  0  0
 17 35  1  0  0  0  0
 18 19  1  0  0  0  0
 18 36  1  0  0  0  0
 19 20  1  0  0  0  0
 20 21  1  0  0  0  0
 21 37  1  0  0  0  0
 21 38  1  0  0  0  0
 21 39  1  0  0  0  0
M  END
> <PUBCHEM_COMPOUND_CID>
92123

> <PUBCHEM_CONFORMER_RMSD>
0.8

> <PUBCHEM_CONFORMER_DIVERSEORDER>
1
67
17
35
33
71
77
41
76
60
32
61
6
11
63
39
34
20
30
57
62
75
78
3
69
27
16
19
52
65
10
40
8
14
73
5
7
55
70
42
28
38
36
13
48
31
25
44
68
2
74
56
29
24
26
72
43
18
9
64
22
51
47
21
66
45
58
46
4
15
54
23
59
49
12
37
50
53

> <PUBCHEM_MMFF94_PARTIAL_CHARGES>
29
1 -0.56
10 0.28
11 0.28
12 0.56
13 0.28
14 0.08
15 -0.15
16 -0.15
17 -0.15
18 -0.15
19 0.09
2 -0.68
20 0.42
21 0.06
29 0.4
3 -0.36
30 0.4
31 0.4
32 0.4
33 0.15
34 0.15
35 0.15
36 0.15
4 -0.68
5 -0.68
6 -0.68
7 -0.57
8 0.28
9 0.28

> <PUBCHEM_EFFECTIVE_ROTOR_COUNT>
5.2

> <PUBCHEM_PHARMACOPHORE_FEATURES>
13
1 1 acceptor
1 2 acceptor
1 2 donor
1 3 acceptor
1 4 acceptor
1 4 donor
1 5 acceptor
1 5 donor
1 6 acceptor
1 6 donor
1 7 acceptor
6 1 8 9 10 11 12 rings
6 14 15 16 17 18 19 rings

> <PUBCHEM_HEAVY_ATOM_COUNT>
21

> <PUBCHEM_ATOM_DEF_STEREO_COUNT>
5

> <PUBCHEM_ATOM_UDEF_STEREO_COUNT>
0

> <PUBCHEM_BOND_DEF_STEREO_COUNT>
0

> <PUBCHEM_BOND_UDEF_STEREO_COUNT>
0

> <PUBCHEM_ISOTOPIC_ATOM_COUNT>
0

> <PUBCHEM_COMPONENT_COUNT>
1

> <PUBCHEM_CACTVS_TAUTO_COUNT>
2

> <PUBCHEM_CONFORMER_ID>
000167DB00000001

> <PUBCHEM_MMFF94_ENERGY>
67.249

> <PUBCHEM_FEATURE_SELFOVERLAP>
66.036

> <PUBCHEM_SHAPE_FINGERPRINT>
10366900 7 17748824137578196275
10688039 33 17968376753916646773
11045977 3 18041003955755585923
11089746 13 17703784830000438992
11471102 20 18410291423959581726
11578080 2 13913762803534388988
11640471 11 17845942942949645137
12236239 1 17703789210698580967
12507557 5 18411702101752029179
12633257 1 17895461639592684224
13402501 40 18259978250289288077
13583140 156 18334017211788761419
13675066 3 17748831808885516135
14341114 176 18334583438400893577
14790565 3 17903362846726916508
14866123 147 16461066974968129251
15081414 286 18411702101821211516
15238133 3 18262252022817815525
1813 80 17842287964921661558
18335252 114 18341037516444285349
18785283 64 17969511591534225188
20157964 124 18411133628692276175
20645476 183 17845930835938394479
20645477 56 17967531268572418087
21033648 29 17604134979079491517
21033650 10 15625408781998610723
21041028 32 18192706752772184022
21641784 216 17969803894941037532
21792961 116 17896033253323751614
221357 26 18335413518156237453
22289505 5 18335414621614575380
23227448 37 18340204193671959583
23402539 116 15195278695209920355
23557571 272 13758358851918429955
23559900 14 18409730651307069227
2838139 119 18340762621315436245
351380 180 18408319991226922493
4409770 3 15320584220021338183
474 4 18339641247427728579
5104073 3 18338510945327601458
542803 24 17775286058269998547
57724786 102 18188500171614184165
602551 16 16009037232193479635
7832392 63 18270113647221009742
8272917 22 18342179920982115758
9971528 1 18273211993789258868
9981440 41 17264388325237484744

> <PUBCHEM_SHAPE_MULTIPOLES>
391.08
11.3
2.41
1.07
7.85
1.4
0
1.94
-0.67
-3.11
-0.03
1.27
-0.11
0.08

> <PUBCHEM_SHAPE_SELFOVERLAP>
818.755

> <PUBCHEM_SHAPE_VOLUME>
219

> <PUBCHEM_COORDINATE_TYPE>
2
5
10

$$$$
